<?xml version="1.0" encoding="UTF-8"?>

<!-- generated on 2022-04-18 01:18:12 by Eclipse SUMO polyconvert Version 1.12.0
<configuration xmlns:xsi="http://www.w3.org/2001/XMLSchema-instance" xsi:noNamespaceSchemaLocation="http://sumo.dlr.de/xsd/polyconvertConfiguration.xsd">

    <input>
        <net-file value="osm.net.xml"/>
        <osm-files value="osm_bbox.osm.xml"/>
        <osm.keep-full-type value="true"/>
        <type-file value="C:\Program%20Files%20(x86)\Eclipse\Sumo\data\typemap\osmPolyconvert.typ.xml"/>
    </input>

    <output>
        <output-file value="osm.poly.xml"/>
    </output>

    <processing>
        <poi-layer-offset value="5"/>
    </processing>

    <report>
        <verbose value="true"/>
    </report>

</configuration>
-->

<additional xmlns:xsi="http://www.w3.org/2001/XMLSchema-instance" xsi:noNamespaceSchemaLocation="http://sumo.dlr.de/xsd/additional_file.xsd">
    <location netOffset="-390117.01,-5819523.68" convBoundary="-1128.84,-4142.82,1458.31,3735.51" origBoundary="13.365446,52.477280,13.402094,52.548335" projParameter="+proj=utm +zone=33 +ellps=WGS84 +datum=WGS84 +units=m +no_defs"/>

    <poly id="1025206459" type="amenity.fountain" color="237,199,199" fill="1" layer="-1.00" shape="741.791921,318.566218 744.562411,320.129121 749.299649,320.390777 752.182112,319.057999 753.586095,316.567506 753.798793,313.013045 751.771453,310.376452 747.721247,309.264910 743.373028,309.706756 740.995493,312.374734 740.503725,315.590457 741.791921,318.566218"/>
    <poly id="120456814" type="amenity.university" color="237,199,199" fill="1" layer="-2.00" shape="850.941967,465.624028 947.816560,474.284428 948.708485,468.912194 951.398183,468.985902 953.371599,465.848527 966.024950,353.233610 970.334408,302.206588 894.947199,295.637932 819.410232,289.062636 814.814436,340.574710 806.582240,461.971536 850.941967,465.624028"/>
    <poly id="15971186" type="building.museum" color="255,230,230" fill="1" layer="-1.00" shape="1071.199969,300.020370 1071.018947,302.261044 1071.474771,302.306556 1071.341965,303.967523 1071.224571,305.405595 1070.673760,305.362194 1070.232182,310.846797 1070.762639,310.890650 1070.364222,315.873551 1069.636757,315.822947 1069.191116,321.430044 1069.830129,321.471486 1069.607432,324.280596 1068.934248,324.228786 1068.546934,329.100164 1069.057034,329.144470 1068.755545,332.990200 1068.102716,332.937938 1067.778290,336.973347 1066.377399,336.859811 1065.994650,341.630940 1065.195295,342.316357 1064.857704,347.286780 1065.479841,348.096403 1065.087231,353.034665 1066.331819,353.140545 1066.018495,357.064432 1066.514776,357.097916 1066.249666,360.442095 1065.644335,360.388778 1065.218925,365.683854 1065.694850,365.717791 1065.456005,368.716429 1064.878061,368.673632 1064.426884,374.336492 1064.882454,374.370881 1064.473448,379.487550 1063.909075,379.444451 1063.478615,384.817532 1063.886691,384.852976 1063.675100,387.550564 1063.178823,387.517080 1063.066738,388.888269 1063.542661,388.922205 1063.473486,389.780569 1064.649724,389.865712 1064.612362,390.322775 1072.738453,390.965682 1072.690981,391.578756 1076.458146,391.873405 1079.899148,392.153047 1079.931950,391.796234 1099.897005,393.377984 1099.854337,393.901930 1116.813838,395.250059 1116.829252,395.027164 1136.257045,396.565354 1136.208330,397.122817 1143.389339,397.697803 1143.421158,397.296503 1152.036961,397.984306 1152.062243,397.594278 1152.973623,397.674194 1153.042319,396.793586 1153.586335,396.837147 1153.676492,395.700128 1153.037242,395.647554 1153.297351,392.381386 1154.031835,392.442974 1154.461652,387.036535 1153.876679,386.982756 1154.296878,381.754572 1154.908743,381.796627 1155.312293,376.735728 1154.842908,376.690510 1155.108076,373.346337 1155.672449,373.389446 1156.086113,368.172536 1155.589835,368.139042 1155.861296,364.772474 1156.378176,364.816638 1156.695887,360.781386 1157.967610,360.886687 1158.366109,355.903794 1159.183735,355.429411 1159.643428,350.756733 1158.813200,350.051868 1159.236866,344.979395 1158.155608,344.892121 1158.500828,340.566940 1157.922882,340.524132 1158.134527,337.826549 1158.800923,337.878522 1159.257518,332.148789 1158.618261,332.096214 1158.841008,329.287109 1159.514190,329.338931 1159.971528,323.642564 1159.488815,323.608769 1159.865366,318.860044 1160.416175,318.903455 1160.873269,313.195967 1160.424232,313.150296 1160.573226,311.299804 1160.690892,309.872857 1161.262057,309.915816 1161.325946,309.124337 1160.781921,309.080775 1160.883430,307.843356 1158.503287,307.651382 1158.460612,308.175328 1155.726915,307.957821 1155.775387,307.389236 1150.260250,306.944159 1150.217822,307.479227 1145.063271,307.070661 1145.110754,306.457588 1140.228091,306.065247 1140.186159,306.622559 1137.064733,306.369160 1137.111968,305.744965 1131.522193,305.301566 1131.473723,305.870151 1128.216599,305.619771 1128.270371,304.984302 1124.366952,304.670382 1124.446745,303.678251 1118.782332,303.236524 1118.659868,304.752601 1116.014370,304.533157 1113.661610,304.351725 1113.805284,302.568115 1108.235856,302.124290 1108.150269,303.161060 1103.791271,302.812763 1103.742557,303.370226 1101.151831,303.171830 1101.193759,302.614517 1095.631115,302.170557 1095.578829,302.872758 1092.709180,302.647178 1092.767756,301.922582 1087.463677,301.506270 1087.415954,302.108222 1081.697008,301.656621 1081.754842,300.898658 1076.838241,300.507133 1076.785217,301.175969 1073.990446,300.959864 1074.049267,300.246389 1071.199969,300.020370"/>
    <poly id="15976890" type="building.yes" color="255,230,230" fill="1" layer="-1.00" shape="1147.505375,258.377612 1167.902341,260.128111 1188.953113,261.975460 1190.922911,238.474731 1179.666611,237.500494 1179.508106,239.228793 1177.672458,239.102618 1177.849095,237.273768 1162.628501,235.998088 1162.498870,237.803640 1160.661493,237.599616 1160.812465,235.838101 1149.522720,234.886931 1147.505375,258.377612"/>
    <poly id="15976890#1" type="historic.house" color="128,255,128" fill="1" layer="-1.00" shape="1147.505375,258.377612 1167.902341,260.128111 1188.953113,261.975460 1190.922911,238.474731 1179.666611,237.500494 1179.508106,239.228793 1177.672458,239.102618 1177.849095,237.273768 1162.628501,235.998088 1162.498870,237.803640 1160.661493,237.599616 1160.812465,235.838101 1149.522720,234.886931 1147.505375,258.377612"/>
    <poly id="15976892" type="amenity.theatre" color="237,199,199" fill="1" layer="-1.00" shape="952.446986,147.129045 952.399771,147.753243 944.851722,147.175558 944.187515,155.769738 935.755434,155.122708 934.655735,169.468436 932.337073,169.297457 930.909737,187.834466 933.215067,188.016868 932.109098,202.384992 940.575024,203.031260 937.752637,239.726217 945.218879,240.294577 944.943982,243.805897 954.763261,244.566746 962.868517,245.176560 963.143674,241.676363 970.759426,242.252565 973.620401,205.145056 982.603214,205.835541 983.688618,191.757208 986.490242,191.973112 987.923087,173.369238 985.128238,173.153183 986.235115,158.818440 977.292929,158.127042 977.940794,149.711274 970.535733,149.152627 970.582703,148.517307 952.446986,147.129045"/>
    <poly id="15976892#1" type="building.opera_house" color="255,230,230" fill="1" layer="-1.00" shape="952.446986,147.129045 952.399771,147.753243 944.851722,147.175558 944.187515,155.769738 935.755434,155.122708 934.655735,169.468436 932.337073,169.297457 930.909737,187.834466 933.215067,188.016868 932.109098,202.384992 940.575024,203.031260 937.752637,239.726217 945.218879,240.294577 944.943982,243.805897 954.763261,244.566746 962.868517,245.176560 963.143674,241.676363 970.759426,242.252565 973.620401,205.145056 982.603214,205.835541 983.688618,191.757208 986.490242,191.973112 987.923087,173.369238 985.128238,173.153183 986.235115,158.818440 977.292929,158.127042 977.940794,149.711274 970.535733,149.152627 970.582703,148.517307 952.446986,147.129045"/>
    <poly id="15976893" type="building.university" color="255,230,230" fill="1" layer="-1.00" shape="855.960218,296.160662 856.055608,294.956753 819.385924,291.934110 815.686494,336.449188 831.294139,337.737421 822.156092,447.737406 808.521063,446.616708 807.305670,461.232127 814.779621,461.855744 814.710244,462.702991 834.486402,464.343498 834.556030,463.507374 842.655649,464.183868 851.153581,363.222704 874.187968,365.146939 873.951569,367.945239 879.181465,368.385224 899.747483,370.119704 903.181977,370.410496 903.428992,367.478429 926.960353,369.469745 918.349751,470.622401 924.463766,471.142909 924.371438,472.179834 935.014922,473.089206 941.067621,473.599971 941.154405,472.618809 947.152827,473.130789 947.356962,470.711550 948.064299,470.773711 949.126183,458.698857 939.107852,457.820058 948.733174,347.943075 965.593842,349.415290 969.464374,305.208141 933.253517,302.052045 933.177084,302.888318 932.214302,313.926097 929.101997,349.481372 904.977539,347.380835 905.232332,344.493106 904.667705,344.438903 904.856918,342.264803 890.670071,341.067124 877.360442,339.938983 877.182830,342.023805 876.509645,341.972022 876.257592,344.982095 852.067459,342.983427 855.006768,307.609977 855.960218,296.160662"/>
    <poly id="188036509" type="landuse.commercial" color="209,209,204" fill="1" layer="-3.00" shape="559.322067,346.782684 595.495287,349.769940 613.279083,351.231477 633.947413,352.673246 641.009757,353.094360 658.426733,354.241539 667.089955,354.916310 668.032800,346.360370 672.072141,304.363532 674.134222,279.024383 656.980518,278.127205 647.506935,277.648563 636.651045,276.978217 603.102519,274.210270 565.602708,271.119014 563.864040,292.066708 560.986548,326.771365 559.322067,346.782684"/>
    <poly id="188036516" type="landuse.commercial" color="209,209,204" fill="1" layer="-3.00" shape="540.357091,345.625903 544.882729,292.924375 546.825765,269.579661 534.842621,268.589745 525.661577,267.837742 513.392461,266.809752 505.148727,266.081368 501.265077,265.745245 497.000724,265.384243 485.085157,264.381811 479.004993,263.872212 473.135410,263.369044 462.994930,262.516185 456.750507,261.643069 404.098751,257.333700 387.861926,256.161029 374.755950,255.051943 370.853168,254.771988 352.060694,253.456277 349.047019,296.576685 348.476460,304.757166 345.942697,329.873379 375.258251,331.866239 386.539214,332.726798 391.591311,333.103475 397.564905,333.403919 444.238297,337.234746 450.474427,337.740814 456.403422,338.476306 461.878402,338.943756 467.183263,339.392756 472.535616,339.840702 487.192009,341.082326 491.891521,341.478109 496.339497,341.857258 498.169093,342.016695 517.028442,343.609651 519.157812,343.818041 540.357091,345.625903"/>
    <poly id="194079584" type="leisure.park" color="207,245,201" fill="1" layer="-2.00" shape="975.632723,368.609783 980.366113,310.084446 999.944312,311.652148 997.331220,344.036017 1029.598706,346.623683 1032.176379,314.774752 1051.346702,316.318340 1046.655139,374.319651 975.632723,368.609783"/>
    <poly id="195071820" type="building.office" color="255,230,230" fill="1" layer="-1.00" shape="330.191998,176.518925 316.575418,175.354641 315.997942,182.010788 310.005858,181.499423 309.483554,187.586824 341.545734,190.330391 343.161645,171.521850 342.263774,171.441781 330.714827,170.453771 330.191998,176.518925"/>
    <poly id="195071827" type="building.yes" color="255,230,230" fill="1" layer="-1.00" shape="582.508833,323.887454 600.461853,325.322916 602.693603,297.565234 584.740730,296.140885 582.508833,323.887454"/>
    <poly id="217114826" type="building.theater" color="255,230,230" fill="1" layer="-1.00" shape="461.422388,171.460168 464.298693,171.674105 465.087502,171.734378 493.911594,173.872489 495.786344,148.693212 477.460945,147.333193 477.523734,146.497215 474.382299,146.266936 474.330348,146.980268 463.307811,146.158229 461.422388,171.460168"/>
    <poly id="23187932" type="building.university" color="255,230,230" fill="1" layer="-1.00" shape="827.438329,320.964886 828.455446,307.500041 840.395473,308.391481 839.153431,324.865794 830.191656,324.197366 830.416544,321.187894 827.438329,320.964886"/>
    <poly id="23187933" type="building.university" color="255,230,230" fill="1" layer="-1.00" shape="945.352750,329.635402 946.641865,316.787691 958.459356,317.971460 957.170211,330.819168 945.352750,329.635402"/>
    <poly id="24044883" type="building.hotel" color="255,230,230" fill="1" layer="-1.00" shape="550.136344,192.847255 550.345184,190.038421 545.463082,189.680036 545.605065,187.829674 550.426104,188.189422 554.796527,130.038834 556.565869,106.508840 551.112315,100.321178 538.877709,99.336850 513.898018,97.613366 474.769826,94.625881 471.974313,131.765727 476.006599,132.065128 475.530754,138.418530 497.793473,140.080082 498.248167,133.994220 505.945587,134.567884 505.616225,138.970668 529.089162,140.716614 528.764827,145.041390 526.690894,144.887394 525.696967,158.140383 528.083754,158.320776 526.236146,182.898536 525.743615,189.419219 520.854476,189.049888 520.963438,187.545220 509.539691,186.687529 506.214590,186.439076 504.874004,204.228775 524.600127,205.702274 543.293917,207.154386 549.031662,207.527051 549.519174,201.084377 549.927503,195.656088 550.136344,192.847255"/>
    <poly id="24240381" type="building.yes" color="255,230,230" fill="1" layer="-1.00" shape="1026.263735,342.869897 1026.560272,339.413740 1025.703403,339.343764 1027.178071,322.007521 1028.007803,322.078101 1028.319259,318.376806 1023.939417,318.006788 1023.971721,317.627730 1024.245322,314.361253 1007.800415,312.968612 1007.531880,316.157085 1007.483425,316.725671 1003.396070,316.382553 1003.082654,319.994873 1004.388564,320.110503 1002.924332,337.301863 1001.938303,337.223634 1001.637471,340.791165 1006.051467,341.171530 1022.054030,342.518356 1026.263735,342.869897"/>
    <poly id="24240381#1" type="tourism.attraction" color="207,245,201" fill="1" layer="-2.00" shape="1026.263735,342.869897 1026.560272,339.413740 1025.703403,339.343764 1027.178071,322.007521 1028.007803,322.078101 1028.319259,318.376806 1023.939417,318.006788 1023.971721,317.627730 1024.245322,314.361253 1007.800415,312.968612 1007.531880,316.157085 1007.483425,316.725671 1003.396070,316.382553 1003.082654,319.994873 1004.388564,320.110503 1002.924332,337.301863 1001.938303,337.223634 1001.637471,340.791165 1006.051467,341.171530 1022.054030,342.518356 1026.263735,342.869897"/>
    <poly id="24247016" type="building.office" color="255,230,230" fill="1" layer="-1.00" shape="534.863527,420.337335 535.814705,408.821213 538.323932,378.308754 539.552708,363.414752 521.415368,361.927994 518.910284,392.317968 516.726395,418.850597 534.863527,420.337335"/>
    <poly id="24247021" type="building.hotel" color="255,230,230" fill="1" layer="-1.00" shape="425.758206,394.532406 429.075034,354.320737 453.422402,356.358320 470.621249,357.765643 497.531423,359.968748 521.415368,361.927994 518.910284,392.317968 516.726395,418.850597 502.506455,417.688167 470.394089,415.056001 471.771125,398.300340 467.765699,397.978094 456.101977,396.992373 445.806961,396.198650 425.758206,394.532406"/>
    <poly id="24247175" type="building.yes" color="255,230,230" fill="1" layer="-1.00" shape="1074.496940,253.478155 1088.681011,254.542904 1088.677587,255.611232 1093.642714,256.046203 1099.002356,256.516927 1099.181697,255.422436 1113.679475,256.858629 1113.701428,256.624461 1139.470881,258.811920 1140.138249,250.651684 1141.511010,235.432004 1143.720318,213.250119 1139.763535,212.981879 1137.458021,235.110265 1115.133504,233.380437 1115.178371,231.732553 1114.933617,231.715733 1115.386356,226.119612 1117.821809,226.354849 1118.688137,218.290340 1091.842968,215.971089 1092.299670,211.776958 1077.977800,210.626235 1077.517290,214.953983 1078.246005,215.060200 1077.238889,228.090766 1076.905189,228.042541 1076.665565,230.395793 1075.950803,238.557094 1074.496940,253.478155"/>
    <poly id="24247322" type="building.yes" color="255,230,230" fill="1" layer="-1.00" shape="1065.816217,237.658348 1066.620517,229.250249 1063.831502,228.989510 1069.758388,166.988236 1057.431690,165.815500 1055.321794,187.872824 1054.872992,187.838285 1052.438427,213.307879 1052.778667,213.344829 1050.774015,234.331567 1048.052852,234.069330 1046.432481,250.963692 1061.561790,252.407954 1062.993035,237.387241 1065.816217,237.658348"/>
    <poly id="24247373" type="building.yes" color="255,230,230" fill="1" layer="-1.00" shape="1075.116715,116.360915 1060.667981,115.012753 1058.349942,137.786864 1025.180393,134.684884 1027.003125,112.845352 1013.088549,111.708012 1010.060934,147.138912 1024.233739,148.292757 1024.388400,147.310088 1057.264241,150.029119 1057.165831,151.099558 1058.647456,151.177916 1058.042099,158.457705 1057.431690,165.815500 1069.758388,166.988236 1070.574706,159.425572 1071.515592,150.747378 1078.059172,151.336441 1083.869217,151.908424 1084.509015,144.038110 1084.541821,143.681298 1078.877218,143.239614 1072.430596,142.737416 1075.116715,116.360915"/>
    <poly id="24247420" type="building.university" color="255,230,230" fill="1" layer="-1.00" shape="795.596327,227.467298 796.691216,209.571910 796.741974,208.802972 806.485235,209.498454 823.497291,210.733146 837.802953,211.761085 846.342774,212.372162 846.263867,216.146190 858.670691,217.260971 857.470301,232.866391 857.328852,233.526070 833.719839,231.737091 833.495981,236.927558 826.249064,236.454632 819.083565,235.979905 819.207960,230.591354 795.518978,228.871104 795.596327,227.467298"/>
    <poly id="24247456" type="building.public" color="255,230,230" fill="1" layer="-1.00" shape="853.569749,123.201273 853.459931,126.197053 850.363707,129.826818 846.326422,136.315083 843.587287,142.262582 841.914961,147.340633 840.805555,152.395025 840.360644,158.024389 829.340550,157.001179 828.632023,167.254387 827.794634,178.122485 838.290497,179.079467 838.234915,186.035482 838.871904,192.998334 840.344989,199.096872 842.629452,205.355389 846.342774,212.372162 846.263867,216.146190 858.670691,217.260971 859.492668,217.287185 860.934053,218.913121 864.502453,215.150446 863.400961,213.850773 864.648032,211.931317 865.017011,210.209448 865.000043,207.617085 864.221316,205.264229 865.685455,204.252409 864.285722,202.058035 862.598294,199.747660 861.483758,200.607041 859.268892,195.949347 857.748573,191.387470 856.991598,186.352370 856.657726,180.807108 860.284666,180.893292 861.162342,170.002051 862.151949,159.564551 858.685855,159.385763 859.721045,153.131242 861.019655,148.951728 862.913873,144.692191 865.822397,140.254293 867.175550,141.270175 868.982241,139.482925 870.778188,137.517873 869.659544,136.363239 870.330733,135.714026 870.984347,134.275142 871.468246,131.615994 871.063438,129.288198 870.383701,127.723201 871.729299,126.569363 870.398886,124.440209 868.642842,122.097976 866.778747,123.441398 853.614971,122.488097 853.569749,123.201273"/>
    <poly id="24247494" type="building.office" color="255,230,230" fill="1" layer="-1.00" shape="699.392721,129.461955 700.659281,110.449945 713.096624,111.396773 716.421264,111.623122 716.399762,111.267517 735.561508,112.687688 735.563276,111.853074 750.052452,112.876679 749.937069,113.791717 752.914670,113.981312 769.375743,115.150211 769.335337,115.774259 798.244945,118.090303 798.269316,118.879823 797.050941,133.061323 774.694435,131.144568 772.127127,162.782024 758.185220,161.634890 758.827659,153.297095 745.025635,152.336052 744.448345,160.549994 733.527186,159.702837 735.595888,132.204822 726.986569,131.528715 717.115458,130.891873 699.392721,129.461955"/>
    <poly id="24247607" type="building.office" color="255,230,230" fill="1" layer="-1.00" shape="606.960521,213.456171 606.868252,214.493102 615.084663,215.211141 622.586658,215.856109 622.678930,214.819178 659.143331,217.733675 660.623483,199.785138 660.708979,198.748359 657.845033,198.478393 659.743616,177.070952 662.930034,177.189069 664.116648,162.819059 660.716162,162.538799 619.524791,159.240101 615.152045,158.892540 574.626036,155.601630 570.142477,210.516569 578.527783,211.197395 606.960521,213.456171"/>
    <poly id="25945198" type="building.yes" color="255,230,230" fill="1" layer="-1.00" shape="231.053358,242.944079 224.840798,318.996300 242.882626,320.751172 286.202654,324.266099 329.336677,327.663163 335.911683,251.658662 283.482577,247.301091 231.053358,242.944079"/>
    <poly id="26443306" type="building.office" color="255,230,230" fill="1" layer="-1.00" shape="330.714827,170.453771 342.263774,171.441781 348.818795,95.126203 349.573487,86.374097 337.609449,85.350836 337.527819,86.254004 337.033421,92.073711 332.245196,91.668925 326.190337,162.109056 331.393629,162.560188 330.714827,170.453771"/>
    <poly id="26443646" type="building.yes" color="255,230,230" fill="1" layer="-1.00" shape="462.784443,183.202820 462.564566,186.123182 461.539309,199.788615 461.450797,200.992381 479.993622,202.369732 489.241406,203.064525 504.874004,204.228775 506.214590,186.439076 464.402769,183.322455 462.784443,183.202820"/>
    <poly id="26443910" type="building.commercial" color="255,230,230" fill="1" layer="-1.00" shape="352.060694,253.456277 349.047019,296.576685 348.476460,304.757166 361.957294,305.635241 367.748727,305.984234 368.452778,297.700623 371.105361,297.930633 371.562715,292.579119 374.755950,255.051943 370.853168,254.771988 352.060694,253.456277"/>
    <poly id="26443911" type="building.yes" color="255,230,230" fill="1" layer="-1.00" shape="404.098751,257.333700 387.861926,256.161029 374.755950,255.051943 371.562715,292.579119 376.731690,293.019935 376.092950,300.278338 378.026331,300.524432 383.541327,300.957518 389.011066,301.491772 395.589479,302.123652 396.159010,295.412057 400.769161,296.666582 401.917160,282.731320 402.673493,274.657973 404.098751,257.333700"/>
    <poly id="26443912" type="building.apartments" color="255,230,230" fill="1" layer="-1.00" shape="428.215634,335.912505 428.138965,337.038114 431.225506,337.247330 431.296385,336.166361 444.238297,337.234746 450.474427,337.740814 453.003369,306.916282 447.957292,306.506024 450.373581,277.019330 455.453862,277.439956 455.528227,276.514697 456.750507,261.643069 404.098751,257.333700 402.673493,274.657973 407.100686,275.015253 406.439585,283.097598 401.917160,282.731320 400.769161,296.666582 405.183013,297.035285 404.702887,302.888050 400.092028,302.512623 397.564905,333.403919 428.215634,335.912505"/>
    <poly id="273503357" type="building.yes" color="255,230,230" fill="1" layer="-1.00" shape="376.301266,318.400677 375.258251,331.866239 345.942697,329.873379 348.476460,304.757166 361.957294,305.635241 361.331417,317.110751 376.301266,318.400677"/>
    <poly id="281029304" type="man_made.pipeline" color="255,230,230" fill="0" layer="-1.00" shape="878.057528,241.933444 885.570335,107.622550 693.975886,89.890359 702.417976,-2.523803 558.734570,-167.113148"/>
    <poly id="281029374" type="man_made.pipeline" color="255,230,230" fill="0" layer="-1.00" shape="605.116960,805.300122 609.235530,723.709139 656.916482,596.680256 681.684324,241.945604 367.386275,215.390740 362.618528,214.985471 226.837736,203.524015 4.345517,184.741332"/>
    <poly id="283938845" type="landuse.commercial" color="209,209,204" fill="1" layer="-3.00" shape="221.570300,321.183786 228.221276,241.672158 228.838087,238.598234 230.234179,236.675271 232.393242,235.781232 235.430746,235.312636 334.378430,244.415448 338.973224,244.980345 340.249093,245.875408 341.149341,247.580066 341.981532,250.187588 341.362527,259.237112 335.217667,330.803164 333.477028,332.800569 223.908728,324.058015 222.146398,322.962447 221.570300,321.183786"/>
    <poly id="284514064" type="building.bridge" color="255,230,230" fill="1" layer="-1.00" shape="419.052577,181.353521 423.846495,181.713751 425.159462,168.776304 420.549226,168.434223 419.052577,181.353521"/>
    <poly id="284514075" type="amenity.parking" color="184,184,179" fill="1" layer="-1.00" shape="400.131372,170.949179 400.442445,166.947390 464.298693,171.674105 464.011478,175.530697 400.131372,170.949179"/>
    <poly id="284514077" type="amenity.parking" color="184,184,179" fill="1" layer="-1.00" shape="399.625732,181.431628 400.143103,175.422244 461.142208,179.278054 460.259458,185.952124 423.731026,183.229695 423.846495,181.713751 419.052577,181.353521 418.937109,182.869466 399.625732,181.431628"/>
    <poly id="312214133" type="building.house" color="255,230,230" fill="1" layer="-1.00" shape="371.896947,407.108905 424.381326,411.288082 425.758206,394.532406 429.075034,354.320737 384.680677,350.706174 382.463059,379.342773 378.784523,379.068929 376.335497,406.764855 372.058927,406.459878 371.896947,407.108905"/>
    <poly id="312214135" type="building.office" color="255,230,230" fill="1" layer="-1.00" shape="371.896947,407.108905 346.049172,404.749205 350.783121,348.103557 373.297485,349.825650 371.080182,378.473377 374.269218,378.713649 372.058927,406.459878 371.896947,407.108905"/>
    <poly id="316997876" type="building.yes" color="255,230,230" fill="1" layer="-1.00" shape="1110.346496,159.654965 1111.176500,159.736682 1113.306162,159.956453 1112.693173,165.978981 1109.733510,165.677494 1110.151746,161.584369 1110.346496,159.654965"/>
    <poly id="317728385" type="building.yes" color="255,230,230" fill="1" layer="-1.00" shape="1136.383563,250.312196 1136.091150,254.569439 1114.007522,252.678485 1114.344200,248.275597 1136.383563,250.312196"/>
    <poly id="317728387" type="building.yes" color="255,230,230" fill="1" layer="-1.00" shape="1065.816217,237.658348 1066.620517,229.250249 1070.152804,229.661391 1076.665565,230.395793 1075.950803,238.557094 1069.473953,237.910916 1065.816217,237.658348"/>
    <poly id="326116288" type="landuse.commercial" color="209,209,204" fill="1" layer="-3.00" shape="118.295716,173.773892 341.458964,192.824932 350.463306,85.486240 329.214000,83.925085 329.707670,76.859093 105.983492,59.067276 105.923810,59.736276 104.690290,74.063016 103.135717,89.209275 116.732196,90.673875 114.475361,117.197249 123.557491,118.061988 121.868999,136.927893 121.038483,146.215879 120.281806,153.042988 119.671887,158.542612 118.407795,172.413801 118.295716,173.773892"/>
    <poly id="32699535" type="building.theater" color="255,230,230" fill="1" layer="-1.00" shape="390.759582,166.229104 391.766289,152.653086 377.323619,151.584992 378.368092,137.574147 392.892473,138.651547 395.394247,105.101313 400.045256,105.442461 401.523717,85.635532 418.067676,86.857044 429.164994,87.677314 455.358012,89.618073 467.461761,90.516095 463.307811,146.158229 461.422388,171.460168 425.159462,168.776304 420.549226,168.434223 400.442445,166.947390 399.782799,166.895368 390.759582,166.229104"/>
    <poly id="32699536" type="building.yes" color="255,230,230" fill="1" layer="-1.00" shape="423.731026,183.229695 423.846495,181.713751 419.052577,181.353521 418.937109,182.869466 399.625732,181.431628 398.707758,181.363125 394.247051,181.028854 393.221733,194.683182 435.502936,197.844344 461.539309,199.788615 462.564566,186.123182 460.259458,185.952124 423.731026,183.229695"/>
    <poly id="330840127" type="amenity.university" color="237,199,199" fill="1" layer="-2.00" shape="761.916023,233.113695 859.132427,241.664743 860.934053,218.913121 864.502453,215.150446 863.400961,213.850773 864.648032,211.931317 865.017011,210.209448 865.000043,207.617085 864.221316,205.264229 865.685455,204.252409 864.285722,202.058035 868.982241,139.482925 870.778188,137.517873 869.659544,136.363239 870.330733,135.714026 870.984347,134.275142 871.468246,131.615994 871.063438,129.288198 870.383701,127.723201 871.729299,126.569363 870.398886,124.440209 868.642842,122.097976 866.778747,123.441398 853.614971,122.488097 853.569749,123.201273 809.754460,119.747952 801.412480,119.188165 798.269316,118.879823 797.050941,133.061323 774.694435,131.144568 771.298912,176.799056 773.542942,176.971621 772.189609,191.489967 771.298644,200.556594 763.344673,206.742717 762.081175,224.986830 761.916023,233.113695"/>
    <poly id="354681616" type="landuse.grass" color="194,194,130" fill="1" layer="-3.00" shape="381.980526,194.400346 387.056601,194.932275 388.508439,180.923453 383.432350,180.391523 381.980526,194.400346"/>
    <poly id="373292141" type="leisure.park" color="207,245,201" fill="1" layer="-2.00" shape="273.148443,398.868955 326.800510,403.043216 331.810609,346.613919 277.753147,342.248355 273.148443,398.868955"/>