<?xml version="1.0" encoding="UTF-8"?>

<!-- generated on 2022-04-18 01:18:11 by Eclipse SUMO netconvert Version 1.12.0
<configuration xmlns:xsi="http://www.w3.org/2001/XMLSchema-instance" xsi:noNamespaceSchemaLocation="http://sumo.dlr.de/xsd/netconvertConfiguration.xsd">

    <input>
        <type-files value="C:\Program%20Files%20(x86)\Eclipse\Sumo\data\typemap\osmNetconvert.typ.xml,C:\Program%20Files%20(x86)\Eclipse\Sumo\data\typemap\osmNetconvertUrbanDe.typ.xml,C:\Program%20Files%20(x86)\Eclipse\Sumo\data\typemap\osmNetconvertPedestrians.typ.xml"/>
        <osm-files value="osm_bbox.osm.xml"/>
    </input>

    <output>
        <output-file value="osm.net.xml"/>
        <output.street-names value="true"/>
        <output.original-names value="true"/>
        <ptstop-output value="osm_stops.add.xml"/>
        <ptline-output value="osm_ptlines.xml"/>
    </output>

    <projection>
        <proj.utm value="true"/>
    </projection>

    <processing>
        <geometry.remove value="true"/>
        <roundabouts.guess value="true"/>
    </processing>

    <tls_building>
        <tls.discard-simple value="true"/>
        <tls.join value="true"/>
        <tls.guess-signals value="true"/>
        <tls.default-type value="actuated"/>
    </tls_building>

    <ramp_guessing>
        <ramps.guess value="true"/>
    </ramp_guessing>

    <junctions>
        <junctions.join value="true"/>
        <junctions.corner-detail value="5"/>
    </junctions>

    <pedestrian>
        <crossings.guess value="true"/>
    </pedestrian>

    <railway>
        <railway.topology.repair value="true"/>
        <railway.topology.repair.stop-turn value="true"/>
    </railway>

    <formats>
        <osm.sidewalks value="true"/>
    </formats>

    <report>
        <verbose value="true"/>
        <aggregate-warnings value="5"/>
    </report>

</configuration>
-->

<net version="1.9" junctionCornerDetail="5" walkingareas="true" limitTurnSpeed="5.50" xmlns:xsi="http://www.w3.org/2001/XMLSchema-instance" xsi:noNamespaceSchemaLocation="http://sumo.dlr.de/xsd/net_file.xsd">

    <location netOffset="-390117.01,-5819523.68" convBoundary="0.00,0.00,1458.30,541.03" origBoundary="13.380629,52.514880,13.402094,52.519667" projParameter="+proj=utm +zone=33 +ellps=WGS84 +datum=WGS84 +units=m +no_defs"/>

    <type id="highway.bridleway" priority="1" numLanes="1" speed="2.78" allow="pedestrian" oneway="1" width="2.00"/>
    <type id="highway.bus_guideway" priority="1" numLanes="1" speed="13.89" allow="bus" oneway="1"/>
    <type id="highway.cycleway" priority="1" numLanes="1" speed="8.33" allow="bicycle" oneway="0" width="1.00"/>
    <type id="highway.footway" priority="1" numLanes="1" speed="2.78" allow="pedestrian" oneway="1" width="2.00"/>
    <type id="highway.ford" priority="1" numLanes="1" speed="2.78" allow="army" oneway="0"/>
    <type id="highway.living_street" priority="2" numLanes="1" speed="2.78" disallow="tram rail_urban rail rail_electric rail_fast ship" oneway="0"/>
    <type id="highway.motorway" priority="14" numLanes="2" speed="27.78" allow="private emergency authority army vip passenger hov taxi bus coach delivery truck trailer motorcycle evehicle custom1 custom2" oneway="1"/>
    <type id="highway.motorway_link" priority="9" numLanes="1" speed="16.67" allow="private emergency authority army vip passenger hov taxi bus coach delivery truck trailer motorcycle evehicle custom1 custom2" oneway="1"/>
    <type id="highway.path" priority="1" numLanes="1" speed="2.78" allow="pedestrian bicycle" oneway="0" width="2.00"/>
    <type id="highway.pedestrian" priority="1" numLanes="1" speed="2.78" allow="pedestrian" oneway="1" width="2.00"/>
    <type id="highway.primary" priority="12" numLanes="2" speed="13.89" disallow="pedestrian tram rail_urban rail rail_electric rail_fast ship" oneway="0" sidewalkWidth="3.00"/>
    <type id="highway.primary_link" priority="7" numLanes="1" speed="13.89" disallow="pedestrian tram rail_urban rail rail_electric rail_fast ship" oneway="0" sidewalkWidth="3.00"/>
    <type id="highway.raceway" priority="15" numLanes="2" speed="83.33" allow="vip" oneway="0"/>
    <type id="highway.residential" priority="3" numLanes="1" speed="13.89" disallow="pedestrian tram rail_urban rail rail_electric rail_fast ship" oneway="0" sidewalkWidth="2.00"/>
    <type id="highway.secondary" priority="11" numLanes="1" speed="13.89" disallow="pedestrian tram rail_urban rail rail_electric rail_fast ship" oneway="0" sidewalkWidth="3.00"/>
    <type id="highway.secondary_link" priority="6" numLanes="1" speed="13.89" disallow="pedestrian tram rail_urban rail rail_electric rail_fast ship" oneway="0" sidewalkWidth="3.00"/>
    <type id="highway.service" priority="1" numLanes="1" speed="5.56" allow="pedestrian delivery bicycle" oneway="0"/>
    <type id="highway.stairs" priority="1" numLanes="1" speed="1.39" allow="pedestrian" oneway="1" width="2.00"/>
    <type id="highway.step" priority="1" numLanes="1" speed="1.39" allow="pedestrian" oneway="1" width="2.00"/>
    <type id="highway.steps" priority="1" numLanes="1" speed="1.39" allow="pedestrian" oneway="1" width="2.00"/>
    <type id="highway.tertiary" priority="10" numLanes="1" speed="13.89" disallow="pedestrian tram rail_urban rail rail_electric rail_fast ship" oneway="0" sidewalkWidth="3.00"/>
    <type id="highway.tertiary_link" priority="5" numLanes="1" speed="13.89" disallow="pedestrian tram rail_urban rail rail_electric rail_fast ship" oneway="0" sidewalkWidth="2.00"/>
    <type id="highway.track" priority="1" numLanes="1" speed="5.56" allow="pedestrian motorcycle moped bicycle" oneway="0"/>
    <type id="highway.trunk" priority="13" numLanes="2" speed="13.89" disallow="pedestrian bicycle tram rail_urban rail rail_electric rail_fast ship" oneway="0"/>
    <type id="highway.trunk_link" priority="8" numLanes="1" speed="13.89" disallow="pedestrian bicycle tram rail_urban rail rail_electric rail_fast ship" oneway="0"/>
    <type id="highway.unclassified" priority="4" numLanes="1" speed="13.89" disallow="pedestrian tram rail_urban rail rail_electric rail_fast ship" oneway="0" sidewalkWidth="2.00"/>
    <type id="highway.unsurfaced" priority="1" numLanes="1" speed="8.33" disallow="tram rail_urban rail rail_electric rail_fast ship" oneway="0"/>
    <type id="railway.highspeed" priority="21" numLanes="1" speed="69.44" allow="rail_fast" oneway="1"/>
    <type id="railway.light_rail" priority="19" numLanes="1" speed="27.78" allow="rail_urban" oneway="1"/>
    <type id="railway.preserved" priority="16" numLanes="1" speed="27.78" allow="rail" oneway="1"/>
    <type id="railway.rail" priority="20" numLanes="1" speed="44.44" allow="rail" oneway="1"/>
    <type id="railway.subway" priority="18" numLanes="1" speed="27.78" allow="rail_urban" oneway="1"/>
    <type id="railway.tram" priority="17" numLanes="1" speed="13.89" allow="tram" oneway="1"/>

    <edge id=":1208647642_w0" function="walkingarea">
        <lane id=":1208647642_w0_0" index="0" allow="pedestrian" speed="1.00" length="4.03" width="2.00" shape="883.01,310.79 883.18,308.79 878.18,308.39 878.03,310.39 879.40,312.00 881.39,312.16 882.53,310.78 882.14,310.87 881.84,311.05 881.61,311.32 881.47,311.69"/>
    </edge>
    <edge id=":1208647678_w0" function="walkingarea">
        <lane id=":1208647678_w0_0" index="0" allow="pedestrian" speed="1.00" length="4.02" width="2.00" shape="908.39,312.93 908.56,310.93 903.58,310.51 903.41,312.51 904.78,314.13 906.77,314.30 907.91,312.92 907.52,313.01 907.22,313.18 907.00,313.45 906.85,313.82"/>
    </edge>
    <edge id=":1393236493_w0" function="walkingarea">
        <lane id=":1393236493_w0_0" index="0" allow="pedestrian" speed="1.00" length="4.03" width="2.00" shape="895.96,311.88 896.13,309.89 894.78,308.27 892.78,308.08 891.15,309.47 890.98,311.46"/>
    </edge>
    <edge id=":1702616130_0" function="internal">
        <lane id=":1702616130_0_0" index="0" disallow="pedestrian tram rail_urban rail rail_electric rail_fast ship" speed="3.65" length="4.67" shape="217.77,329.53 216.64,328.63 216.31,327.80 216.77,327.04 218.04,326.34"/>
    </edge>
    <edge id=":1702616130_w0" function="walkingarea">
        <lane id=":1702616130_w0_0" index="0" allow="pedestrian" speed="1.00" length="8.40" width="2.00" shape="218.17,324.75 218.33,322.75 217.48,333.12 217.64,331.12"/>
    </edge>
    <edge id=":2045820585_0" function="internal">
        <lane id=":2045820585_0_0" index="0" allow="delivery bicycle" speed="6.01" length="7.59" shape="573.55,152.22 570.87,152.21 568.93,152.64 567.71,153.53 567.23,154.86"/>
        <lane id=":2045820585_0_1" index="1" allow="delivery bicycle" speed="6.96" length="10.52" shape="573.55,152.22 569.47,152.10 566.53,152.46 564.72,153.30 564.04,154.63"/>
    </edge>
    <edge id=":2045820585_2" function="internal">
        <lane id=":2045820585_2_0" index="0" allow="delivery bicycle" speed="9.03" length="18.43" shape="557.66,154.16 558.84,151.46 561.92,149.71 566.91,148.89 573.79,149.03"/>
    </edge>
    <edge id=":2045820585_3" function="internal">
        <lane id=":2045820585_3_0" index="0" disallow="pedestrian tram rail_urban rail rail_electric rail_fast ship" speed="3.65" length="4.67" shape="560.85,154.39 561.73,153.26 562.56,152.91 563.33,153.37 564.04,154.63"/>
    </edge>
    <edge id=":2045820585_w0" function="walkingarea">
        <lane id=":2045820585_w0_0" index="0" allow="pedestrian" speed="1.00" length="11.53" width="3.20" shape="568.83,154.98 571.82,155.19 573.43,153.81 573.67,150.62 573.67,150.62 573.92,147.43 553.07,153.83 556.06,154.04"/>
    </edge>
    <edge id=":2055808362_0" function="internal">
        <lane id=":2055808362_0_0" index="0" allow="delivery bicycle" speed="6.10" length="7.63" shape="367.68,170.91 364.95,170.90 362.96,171.32 361.71,172.16 361.19,173.42"/>
    </edge>
    <edge id=":2055808362_1" function="internal">
        <lane id=":2055808362_1_0" index="0" allow="delivery bicycle" speed="8.32" length="15.64" shape="367.68,170.91 362.22,170.12 358.40,168.63 356.23,166.44 355.69,163.56"/>
    </edge>
    <edge id=":2055808362_2" function="internal">
        <lane id=":2055808362_2_0" index="0" allow="pedestrian delivery bicycle" speed="3.65" length="4.67" shape="367.68,170.91 366.54,170.02 366.20,169.20 366.65,168.43 367.90,167.71"/>
    </edge>
    <edge id=":2055808362_3" function="internal">
        <lane id=":2055808362_3_0" index="0" allow="delivery bicycle" speed="6.00" length="7.63" shape="362.07,164.12 362.33,165.53 363.39,166.60 365.25,167.33 367.90,167.71"/>
    </edge>
    <edge id=":2055808362_4" function="internal">
        <lane id=":2055808362_4_0" index="0" disallow="pedestrian tram rail_urban rail rail_electric rail_fast ship" speed="13.89" length="9.32" shape="362.07,164.12 361.19,173.42"/>
        <lane id=":2055808362_4_1" index="1" disallow="pedestrian tram rail_urban rail rail_electric rail_fast ship" speed="13.89" length="9.32" shape="358.88,163.84 358.01,173.10"/>
    </edge>
    <edge id=":2055808362_6" function="internal">
        <lane id=":2055808362_6_0" index="0" disallow="pedestrian tram rail_urban rail rail_electric rail_fast ship" speed="13.89" length="9.26" shape="354.82,172.78 355.69,163.56"/>
    </edge>
    <edge id=":2055808362_7" function="internal">
        <lane id=":2055808362_7_0" index="0" allow="delivery bicycle" speed="8.40" length="2.50" shape="354.82,172.78 355.77,170.47"/>
    </edge>
    <edge id=":2055808362_8" function="internal">
        <lane id=":2055808362_8_0" index="0" allow="delivery bicycle" speed="8.40" length="12.89" shape="355.77,170.47 355.87,170.24 358.39,168.54 362.41,167.70 367.90,167.71"/>
    </edge>
    <edge id=":2055808362_c0" function="crossing" crossingEdges="24913267#3 -24913267#3">
        <lane id=":2055808362_c0_0" index="0" allow="pedestrian" speed="1.00" length="9.60" width="4.00" shape="353.92,165.41 363.49,166.25"/>
    </edge>
    <edge id=":2055808362_w0" function="walkingarea">
        <lane id=":2055808362_w0_0" index="0" allow="pedestrian" speed="1.00" length="5.63" width="4.00" shape="362.78,173.58 365.77,173.88 367.57,172.50 367.79,169.31 367.79,169.31 368.01,166.12 366.65,164.52 363.66,164.26 363.31,168.24"/>
    </edge>
    <edge id=":2055808362_w1" function="walkingarea">
        <lane id=":2055808362_w1_0" index="0" allow="pedestrian" speed="1.00" length="6.37" width="4.00" shape="353.75,167.40 354.10,163.42 351.11,163.15 350.25,172.31 353.23,172.61"/>
    </edge>
    <edge id=":2268135945_0" function="internal">
        <lane id=":2268135945_0_0" index="0" disallow="pedestrian tram rail_urban rail rail_electric rail_fast ship" speed="13.89" length="4.99" shape="1020.66,288.27 1015.69,287.82"/>
        <lane id=":2268135945_0_1" index="1" disallow="pedestrian tram rail_urban rail rail_electric rail_fast ship" speed="13.89" length="4.99" shape="1020.94,285.08 1015.97,284.64"/>
        <lane id=":2268135945_0_2" index="2" disallow="pedestrian tram rail_urban rail rail_electric rail_fast ship" speed="13.89" length="4.99" shape="1021.22,281.89 1016.26,281.45"/>
    </edge>
    <edge id=":2268135945_w0" function="walkingarea">
        <lane id=":2268135945_w0_0" index="0" allow="pedestrian" speed="1.00" length="3.35" width="3.00" shape="1015.54,289.42 1015.27,292.41 1016.93,290.65 1018.92,290.82 1020.25,292.85 1020.52,289.86"/>
    </edge>
    <edge id=":2268135946_w0" function="walkingarea">
        <lane id=":2268135946_w0_0" index="0" allow="pedestrian" speed="1.00" length="0.10" width="2.00" shape="1016.95,313.22 1014.96,313.05 1014.96,313.05 1016.95,313.22"/>
    </edge>
    <edge id=":2488151173_w0" function="walkingarea">
        <lane id=":2488151173_w0_0" index="0" allow="pedestrian" speed="1.00" length="2.51" width="2.00" shape="823.26,267.06 823.07,269.05 824.58,269.22 826.48,268.61 826.36,267.86 826.45,267.30 826.73,266.86 827.17,266.48 827.73,266.08"/>
    </edge>
    <edge id=":2488151173_w1" function="walkingarea">
        <lane id=":2488151173_w1_0" index="0" allow="pedestrian" speed="1.00" length="2.51" width="2.00" shape="826.46,268.61 828.40,268.12 829.60,267.21 828.40,265.61 824.08,267.11 824.77,267.16 825.33,267.26 825.80,267.49 826.18,267.92"/>
    </edge>
    <edge id=":2488151176_w0" function="walkingarea">
        <lane id=":2488151176_w0_0" index="0" allow="pedestrian" speed="1.00" length="4.25" width="2.00" shape="828.13,255.69 826.14,255.52 824.58,256.14 824.45,258.13 829.38,260.53 830.90,259.23 830.09,255.83 828.10,255.69"/>
    </edge>
    <edge id=":2549448141_0" function="internal">
        <lane id=":2549448141_0_0" index="0" allow="rail_urban" speed="13.19" length="0.20" shape="1174.84,258.77 1175.03,258.73"/>
    </edge>
    <edge id=":25662710_0" function="internal">
        <lane id=":25662710_0_0" index="0" disallow="pedestrian tram rail_urban rail rail_electric rail_fast ship" speed="3.65" length="4.67" shape="705.58,-0.16 706.50,-1.27 707.34,-1.59 708.09,-1.11 708.77,0.16"/>
    </edge>
    <edge id=":25662710_w0" function="walkingarea">
        <lane id=":25662710_w0_0" index="0" allow="pedestrian" speed="1.00" length="8.40" width="2.00" shape="710.36,0.32 712.35,0.52 702.00,-0.52 703.99,-0.32"/>
    </edge>
    <edge id=":25664649_0" function="internal">
        <lane id=":25664649_0_0" index="0" disallow="pedestrian tram rail_urban rail rail_electric rail_fast ship" speed="6.49" length="9.13" shape="555.25,355.99 552.54,356.09 550.55,356.89 549.29,358.41 548.76,360.65"/>
    </edge>
    <edge id=":25664649_1" function="internal">
        <lane id=":25664649_1_0" index="0" disallow="pedestrian tram rail_urban rail rail_electric rail_fast ship" speed="8.33" length="15.51" shape="555.25,355.99 539.79,354.75"/>
    </edge>
    <edge id=":25664649_2" function="internal">
        <lane id=":25664649_2_0" index="0" disallow="pedestrian tram rail_urban rail rail_electric rail_fast ship" speed="8.07" length="14.32" shape="555.25,355.99 551.20,355.13 548.39,353.32 546.82,350.59 546.50,346.92"/>
    </edge>
    <edge id=":25664649_3" function="internal">
        <lane id=":25664649_3_0" index="0" disallow="pedestrian tram rail_urban rail rail_electric rail_fast ship" speed="3.65" length="4.67" shape="555.25,355.99 554.12,355.09 553.79,354.26 554.26,353.50 555.52,352.80"/>
    </edge>
    <edge id=":25664649_4" function="internal">
        <lane id=":25664649_4_0" index="0" disallow="pedestrian tram rail_urban rail rail_electric rail_fast ship" speed="6.60" length="5.05" shape="549.69,347.15 549.91,349.42 550.96,351.12 551.61,351.52"/>
    </edge>
    <edge id=":25664649_5" function="internal">
        <lane id=":25664649_5_0" index="0" disallow="pedestrian tram rail_urban rail rail_electric rail_fast ship" speed="8.33" length="13.53" shape="549.69,347.15 548.76,360.65"/>
    </edge>
    <edge id=":25664649_6" function="internal">
        <lane id=":25664649_6_0" index="0" disallow="pedestrian tram rail_urban rail rail_electric rail_fast ship" speed="8.00" length="3.69" shape="549.69,347.15 548.85,350.74"/>
    </edge>
    <edge id=":25664649_7" function="internal">
        <lane id=":25664649_7_0" index="0" disallow="pedestrian tram rail_urban rail rail_electric rail_fast ship" speed="3.65" length="1.44" shape="549.69,347.15 548.80,348.29"/>
    </edge>
    <edge id=":25664649_16" function="internal">
        <lane id=":25664649_16_0" index="0" disallow="pedestrian tram rail_urban rail rail_electric rail_fast ship" speed="6.60" length="4.16" shape="551.61,351.52 552.83,352.25 555.52,352.80"/>
    </edge>
    <edge id=":25664649_17" function="internal">
        <lane id=":25664649_17_0" index="0" disallow="pedestrian tram rail_urban rail rail_electric rail_fast ship" speed="8.00" length="10.54" shape="548.85,350.74 546.91,353.20 543.90,354.54 539.79,354.75"/>
    </edge>
    <edge id=":25664649_18" function="internal">
        <lane id=":25664649_18_0" index="0" disallow="pedestrian tram rail_urban rail rail_electric rail_fast ship" speed="3.65" length="3.23" shape="548.80,348.29 547.98,348.63 547.21,348.17 546.50,346.92"/>
    </edge>
    <edge id=":25664649_8" function="internal">
        <lane id=":25664649_8_0" index="0" disallow="pedestrian tram rail_urban rail rail_electric rail_fast ship" speed="6.51" length="9.06" shape="540.03,351.56 542.72,351.44 544.70,350.63 545.95,349.12 546.50,346.92"/>
    </edge>
    <edge id=":25664649_9" function="internal">
        <lane id=":25664649_9_0" index="0" disallow="pedestrian tram rail_urban rail rail_electric rail_fast ship" speed="8.33" length="15.54" shape="540.03,351.56 555.52,352.80"/>
    </edge>
    <edge id=":25664649_10" function="internal">
        <lane id=":25664649_10_0" index="0" disallow="pedestrian tram rail_urban rail rail_electric rail_fast ship" speed="8.07" length="14.33" shape="540.03,351.56 544.06,352.39 546.85,354.18 548.42,356.93 548.76,360.65"/>
    </edge>
    <edge id=":25664649_11" function="internal">
        <lane id=":25664649_11_0" index="0" disallow="pedestrian tram rail_urban rail rail_electric rail_fast ship" speed="3.65" length="4.67" shape="540.03,351.56 541.17,352.45 541.51,353.27 541.05,354.04 539.79,354.75"/>
    </edge>
    <edge id=":25664649_12" function="internal">
        <lane id=":25664649_12_0" index="0" disallow="pedestrian tram rail_urban rail rail_electric rail_fast ship" speed="6.59" length="5.03" shape="545.57,360.44 545.33,358.12 544.29,356.40 543.70,356.04"/>
    </edge>
    <edge id=":25664649_13" function="internal">
        <lane id=":25664649_13_0" index="0" disallow="pedestrian tram rail_urban rail rail_electric rail_fast ship" speed="8.33" length="13.56" shape="545.57,360.44 546.50,346.92"/>
    </edge>
    <edge id=":25664649_14" function="internal">
        <lane id=":25664649_14_0" index="0" disallow="pedestrian tram rail_urban rail rail_electric rail_fast ship" speed="7.99" length="3.73" shape="545.57,360.44 546.40,356.80"/>
    </edge>
    <edge id=":25664649_15" function="internal">
        <lane id=":25664649_15_0" index="0" disallow="pedestrian tram rail_urban rail rail_electric rail_fast ship" speed="3.65" length="1.44" shape="545.57,360.44 546.44,359.29"/>
    </edge>
    <edge id=":25664649_19" function="internal">
        <lane id=":25664649_19_0" index="0" disallow="pedestrian tram rail_urban rail rail_electric rail_fast ship" speed="6.59" length="4.18" shape="543.70,356.04 542.45,355.28 539.79,354.75"/>
    </edge>
    <edge id=":25664649_20" function="internal">
        <lane id=":25664649_20_0" index="0" disallow="pedestrian tram rail_urban rail rail_electric rail_fast ship" speed="7.99" length="10.62" shape="546.40,356.80 548.33,354.31 551.37,352.98 555.52,352.80"/>
    </edge>
    <edge id=":25664649_21" function="internal">
        <lane id=":25664649_21_0" index="0" disallow="pedestrian tram rail_urban rail rail_electric rail_fast ship" speed="3.65" length="3.23" shape="546.44,359.29 547.27,358.95 548.04,359.40 548.76,360.65"/>
    </edge>
    <edge id=":25664649_c0" function="crossing" crossingEdges="-4412868 4412868">
        <lane id=":25664649_c0_0" index="0" allow="pedestrian" speed="1.00" length="6.40" width="4.00" shape="553.66,351.04 553.12,357.42"/>
    </edge>
    <edge id=":25664649_c1" function="crossing" crossingEdges="-169999355#2 169999355#0">
        <lane id=":25664649_c1_0" index="0" allow="pedestrian" speed="1.00" length="6.40" width="4.00" shape="544.76,348.80 551.14,349.26"/>
    </edge>
    <edge id=":25664649_c2" function="crossing" crossingEdges="-111833185#1 111833185#1">
        <lane id=":25664649_c2_0" index="0" allow="pedestrian" speed="1.00" length="6.40" width="4.00" shape="541.66,356.49 542.15,350.11"/>
    </edge>
    <edge id=":25664649_c3" function="crossing" crossingEdges="-11483007#2 11483007#0">
        <lane id=":25664649_c3_0" index="0" allow="pedestrian" speed="1.00" length="6.40" width="4.00" shape="550.49,358.76 544.10,358.34"/>
    </edge>
    <edge id=":25664649_w0" function="walkingarea">
        <lane id=":25664649_w0_0" index="0" allow="pedestrian" speed="1.00" length="3.30" width="4.00" shape="550.36,360.75 553.35,360.95 554.94,359.58 555.11,357.59 553.72,357.57 552.57,357.77 551.66,358.18 550.99,358.82 550.55,359.68"/>
    </edge>
    <edge id=":25664649_w1" function="walkingarea">
        <lane id=":25664649_w1_0" index="0" allow="pedestrian" speed="1.00" length="3.40" width="4.00" shape="555.65,351.21 555.82,349.22 554.28,347.48 551.28,347.26 551.33,348.36 551.66,349.28 552.25,350.02 553.11,350.59 554.25,350.99"/>
    </edge>
    <edge id=":25664649_w2" function="walkingarea">
        <lane id=":25664649_w2_0" index="0" allow="pedestrian" speed="1.00" length="3.29" width="4.00" shape="544.90,346.80 541.91,346.58 540.30,347.97 540.15,349.96 541.53,349.97 542.68,349.76 543.59,349.34 544.26,348.71 544.70,347.86"/>
    </edge>
    <edge id=":25664649_w3" function="walkingarea">
        <lane id=":25664649_w3_0" index="0" allow="pedestrian" speed="1.00" length="3.39" width="4.00" shape="539.67,356.34 539.52,358.34 540.98,360.14 543.97,360.33 543.92,359.21 543.60,358.27 543.01,357.51 542.17,356.94 541.05,356.55"/>
    </edge>
    <edge id=":25664657_0" function="internal">
        <lane id=":25664657_0_0" index="0" disallow="pedestrian tram rail_urban rail rail_electric rail_fast ship" speed="6.51" length="9.04" shape="668.28,362.39 670.75,362.25 672.59,361.35 673.78,359.69 674.33,357.28"/>
    </edge>
    <edge id=":25664657_1" function="internal">
        <lane id=":25664657_1_0" index="0" disallow="pedestrian tram rail_urban rail rail_electric rail_fast ship" speed="3.65" length="4.67" shape="668.28,362.39 669.41,363.29 669.74,364.12 669.27,364.88 668.01,365.58"/>
    </edge>
    <edge id=":25664657_2" function="internal">
        <lane id=":25664657_2_0" index="0" disallow="pedestrian tram rail_urban rail rail_electric rail_fast ship" speed="6.57" length="4.80" shape="673.29,371.56 673.09,369.13 672.14,367.31 671.89,367.14"/>
    </edge>
    <edge id=":25664657_3" function="internal">
        <lane id=":25664657_3_0" index="0" disallow="pedestrian tram rail_urban rail rail_electric rail_fast ship" speed="13.89" length="14.32" shape="673.29,371.56 674.33,357.28"/>
    </edge>
    <edge id=":25664657_4" function="internal">
        <lane id=":25664657_4_0" index="0" disallow="pedestrian tram rail_urban rail rail_electric rail_fast ship" speed="6.57" length="4.26" shape="671.89,367.14 670.45,366.13 668.01,365.58"/>
    </edge>
    <edge id=":25664657_c0" function="crossing" crossingEdges="153698394#1">
        <lane id=":25664657_c0_0" index="0" allow="pedestrian" speed="1.00" length="3.20" width="4.00" shape="672.57,359.14 675.76,359.41"/>
    </edge>
    <edge id=":25664657_c1" function="crossing" crossingEdges="4412868 -4412868">
        <lane id=":25664657_c1_0" index="0" allow="pedestrian" speed="1.00" length="6.40" width="4.00" shape="669.87,367.34 670.41,360.97"/>
    </edge>
    <edge id=":25664657_c2" function="crossing" crossingEdges="153698394#0">
        <lane id=":25664657_c2_0" index="0" allow="pedestrian" speed="1.00" length="3.20" width="4.00" shape="675.01,369.67 671.82,369.47"/>
    </edge>
    <edge id=":25664657_w0" function="walkingarea">
        <lane id=":25664657_w0_0" index="0" allow="pedestrian" speed="1.00" length="8.94" width="4.00" shape="675.14,367.67 674.89,371.66 676.89,371.79 677.92,357.58 675.93,357.41 675.59,361.40"/>
    </edge>
    <edge id=":25664657_w1" function="walkingarea">
        <lane id=":25664657_w1_0" index="0" allow="pedestrian" speed="1.00" length="3.30" width="4.00" shape="672.74,357.15 670.75,356.98 668.59,358.80 668.42,360.80 669.65,360.79 670.67,360.54 671.49,360.05 672.11,359.33 672.53,358.36"/>
    </edge>
    <edge id=":25664657_w2" function="walkingarea">
        <lane id=":25664657_w2_0" index="0" allow="pedestrian" speed="1.00" length="3.35" width="4.00" shape="667.88,367.17 667.71,369.17 669.70,371.34 671.70,371.47 671.66,370.25 671.38,369.23 670.86,368.42 670.11,367.80 669.11,367.39"/>
    </edge>
    <edge id=":25664673_w0" function="walkingarea">
        <lane id=":25664673_w0_0" index="0" allow="pedestrian" speed="1.00" length="5.20" width="2.00" shape="666.91,448.79 664.91,448.67 672.10,449.12 670.10,448.99"/>
    </edge>
    <edge id=":25664680_0" function="internal">
        <lane id=":25664680_0_0" index="0" disallow="pedestrian tram rail_urban rail rail_electric rail_fast ship" speed="3.65" length="4.67" shape="544.19,430.61 543.31,431.76 542.48,432.10 541.71,431.65 540.99,430.40"/>
    </edge>
    <edge id=":25664680_w0" function="walkingarea">
        <lane id=":25664680_w0_0" index="0" allow="pedestrian" speed="1.00" length="9.40" width="3.00" shape="539.40,430.30 536.40,430.10 548.78,430.91 545.78,430.72"/>
    </edge>
    <edge id=":25665679_w0" function="walkingarea">
        <lane id=":25665679_w0_0" index="0" allow="pedestrian" speed="1.00" length="6.20" width="3.00" shape="793.73,470.05 791.20,468.44 798.95,473.39 796.42,471.77"/>
    </edge>
    <edge id=":262525190_w0" function="walkingarea">
        <lane id=":262525190_w0_0" index="0" allow="pedestrian" speed="1.00" length="4.21" width="2.00" shape="826.54,268.80 824.64,269.41 823.13,269.25 822.96,271.24 830.15,271.83 830.31,269.84 828.45,268.31 826.51,268.81"/>
    </edge>
    <edge id=":2694740946_0" function="internal">
        <lane id=":2694740946_0_0" index="0" disallow="pedestrian tram rail_urban rail rail_electric rail_fast ship" speed="8.33" length="5.01" shape="499.97,351.73 494.97,351.35"/>
    </edge>
    <edge id=":2694740946_1" function="internal">
        <lane id=":2694740946_1_0" index="0" disallow="pedestrian tram rail_urban rail rail_electric rail_fast ship" speed="8.33" length="5.01" shape="495.22,348.16 500.21,348.54"/>
    </edge>
    <edge id=":2694740946_c0" function="crossing" crossingEdges="111833185#1 -111833185#1">
        <lane id=":2694740946_c0_0" index="0" allow="pedestrian" speed="1.00" length="6.40" width="4.00" shape="498.34,346.80 497.86,353.18"/>
    </edge>
    <edge id=":2694740946_w0" function="walkingarea">
        <lane id=":2694740946_w0_0" index="0" allow="pedestrian" speed="1.00" length="3.48" width="4.00" shape="494.85,352.95 494.69,354.94 499.70,355.32 499.85,353.33 495.86,353.03"/>
    </edge>
    <edge id=":2694740946_w1" function="walkingarea">
        <lane id=":2694740946_w1_0" index="0" allow="pedestrian" speed="1.00" length="3.51" width="4.00" shape="496.34,346.65 500.33,346.95 500.48,344.95 499.09,343.32 497.09,343.19 495.50,344.57 495.34,346.57"/>
    </edge>
    <edge id=":2694740947_0" function="internal">
        <lane id=":2694740947_0_0" index="0" disallow="pedestrian tram rail_urban rail rail_electric rail_fast ship" speed="13.89" length="5.14" shape="508.66,255.20 503.60,254.78"/>
        <lane id=":2694740947_0_1" index="1" disallow="pedestrian tram rail_urban rail rail_electric rail_fast ship" speed="13.89" length="5.14" shape="508.95,252.02 503.84,251.59"/>
        <lane id=":2694740947_0_2" index="2" disallow="pedestrian tram rail_urban rail rail_electric rail_fast ship" speed="13.89" length="5.14" shape="509.25,248.83 504.08,248.40"/>
    </edge>
    <edge id=":2694740947_w0" function="walkingarea">
        <lane id=":2694740947_w0_0" index="0" allow="pedestrian" speed="1.00" length="4.29" width="3.00" shape="503.48,256.38 503.25,259.37 504.61,260.99 506.60,261.18 508.23,259.78 508.51,256.80"/>
    </edge>
    <edge id=":283035794_0" function="internal">