<?xml version="1.0" encoding="UTF-8"?>
<!-- generated on 2022-04-18 01:18:13.928874 by osmWebWizard.py v1_12_0+0000-800cb422fa4
  options: 
-->
<routes xmlns:xsi="http://www.w3.org/2001/XMLSchema-instance" xsi:noNamespaceSchemaLocation="http://sumo.dlr.de/xsd/routes_file.xsd">
    <vType id="ped_pedestrian" vClass="pedestrian"/>
    <person id="ped0" depart="0.00" type="ped_pedestrian">
        <personTrip from="803471189" to="-153698394#0" modes="public"/>
    </person>
    <person id="ped1" depart="17.29" type="ped_pedestrian">
        <personTrip from="169195795#8" to="104786912#3" modes="public"/>
    </person>
    <person id="ped2" depart="34.58" type="ped_pedestrian">
        <personTrip from="882389488" to="881245044" modes="public"/>
    </person>
    <person id="ped3" depart="51.88" type="ped_pedestrian">
        <personTrip from="915958602#1" to="-4611693#0" modes="public"/>
    </person>
    <person id="ped4" depart="69.17" type="ped_pedestrian">
        <personTrip from="317859982#0" to="-168937986#1" modes="public"/>
    </person>
    <person id="ped5" depart="86.46" type="ped_pedestrian">
        <personTrip from="104786912#2" to="38211708#1" modes="public"/>
    </person>
    <person id="ped6" depart="103.75" type="ped_pedestrian">
        <personTrip from="-153698394#3" to="1037153017" modes="public"/>
    </person>
    <person id="ped7" depart="121.04" type="ped_pedestrian">
        <personTrip from="881245039" to="4610525#0" modes="public"/>
    </person>
    <person id="ped8" depart="138.34" type="ped_pedestrian">
        <personTrip from="104786912#2" to="688445661" modes="public"/>
    </person>
    <person id="ped9" depart="155.63" type="ped_pedestrian">
        <personTrip from="883691541#1" to="-111833185#1" modes="public"/>
    </person>
    <person id="ped10" depart="172.92" type="ped_pedestrian">
        <personTrip from="883691541#0" to="881527239#8" modes="public"/>
    </person>
    <person id="ped11" depart="190.21" type="ped_pedestrian">
        <personTrip from="171494871#4" to="1037130735#6" modes="public"/>
    </person>
    <person id="ped12" depart="207.50" type="ped_pedestrian">
        <personTrip from="915958620#0" to="171494871#3" modes="public"/>
    </person>
    <person id="ped13" depart="224.79" type="ped_pedestrian">
        <personTrip from="-4611707" to="-515998815" modes="public"/>
    </person>
    <person id="ped14" depart="242.09" type="ped_pedestrian">
        <personTrip from="915958587#4" to="688445665#0" modes="public"/>
    </person>
    <person id="ped15" depart="259.38" type="ped_pedestrian">
        <personTrip from="883691541#0" to="882389486" modes="public"/>
    </person>
    <person id="ped16" depart="276.67" type="ped_pedestrian">
        <personTrip from="442389818#7" to="915958621#2" modes="public"/>
    </person>
    <person id="ped17" depart="293.96" type="ped_pedestrian">
        <personTrip from="205728152#3" to="4611693#0" modes="public"/>
    </person>
    <person id="ped18" depart="311.25" type="ped_pedestrian">
        <personTrip from="915958585" to="699041686" modes="public"/>
    </person>
    <person id="ped19" depart="328.55" type="ped_pedestrian">
        <personTrip from="915958597#1" to="66071373#1" modes="public"/>
    </person>
    <person id="ped20" depart="345.84" type="ped_pedestrian">
        <personTrip from="881611350" to="-243854725#2" modes="public"/>
    </person>
    <person id="ped21" depart="363.13" type="ped_pedestrian">
        <personTrip from="111833185#0" to="171423002#10" modes="public"/>
    </person>
    <person id="ped22" depart="380.42" type="ped_pedestrian">
        <personTrip from="-4610524#0" to="111833186#0" modes="public"/>
    </person>
    <person id="ped23" depart="397.71" type="ped_pedestrian">
        <personTrip from="-589906055#1" to="169999355#0" modes="public"/>
    </person>
    <person id="ped24" depart="415.01" type="ped_pedestrian">
        <personTrip from="803471188#0" to="194069450#0" modes="public"/>
    </person>
    <person id="ped25" depart="432.30" type="ped_pedestrian">
        <personTrip from="195089283" to="1037153019#1" modes="public"/>
    </person>
    <person id="ped26" depart="449.59" type="ped_pedestrian">
        <personTrip from="169195795#4" to="915958615#2" modes="public"/>
    </person>
    <person id="ped27" depart="466.88" type="ped_pedestrian">
        <personTrip from="803471190#1" to="698625568#0" modes="public"/>
    </person>
    <person id="ped28" depart="484.17" type="ped_pedestrian">
        <personTrip from="1037136885#0" to="882389485" modes="public"/>
    </person>
    <person id="ped29" depart="501.47" type="ped_pedestrian">
        <personTrip from="1037136884#1" to="205728152#3" modes="public"/>
    </person>
    <person id="ped30" depart="518.76" type="ped_pedestrian">
        <personTrip from="915958622#2" to="803471189" modes="public"/>
    </person>
    <person id="ped31" depart="536.05" type="ped_pedestrian">
        <personTrip from="4611693#1" to="881527239#2" modes="public"/>
    </person>
    <person id="ped32" depart="553.34" type="ped_pedestrian">
        <personTrip from="915958587#2" to="882389496#5" modes="public"/>
    </person>
    <person id="ped33" depart="570.63" type="ped_pedestrian">
        <personTrip from="111833185#1" to="-168937986#1" modes="public"/>
    </person>
    <person id="ped34" depart="587.93" type="ped_pedestrian">
        <personTrip from="171423002#5" to="169195795#5" modes="public"/>
    </person>
    <person id="ped35" depart="605.22" type="ped_pedestrian">
        <personTrip from="1037153019#1" to="915958616" modes="public"/>
    </person>
    <person id="ped36" depart="622.51" type="ped_pedestrian">
        <personTrip from="915958601#0" to="171423002#5" modes="public"/>
    </person>
    <person id="ped37" depart="639.80" type="ped_pedestrian">
        <personTrip from="881245041" to="24913267#1" modes="public"/>
    </person>
    <person id="ped38" depart="657.09" type="ped_pedestrian">
        <personTrip from="915958611#1" to="340498982#7" modes="public"/>
    </person>
    <person id="ped39" depart="674.38" type="ped_pedestrian">
        <personTrip from="169195795#4" to="153698380#0" modes="public"/>
    </person>
    <person id="ped40" depart="691.68" type="ped_pedestrian">
        <personTrip from="461526152#0" to="169195795#1" modes="public"/>
    </person>
    <person id="ped41" depart="708.97" type="ped_pedestrian">
        <personTrip from="66071379#1" to="915958605#1" modes="public"/>
    </person>
    <person id="ped42" depart="726.26" type="ped_pedestrian">
        <personTrip from="24913267#3" to="104786912#2" modes="public"/>
    </person>
    <person id="ped43" depart="743.55" type="ped_pedestrian">
        <personTrip from="973075794" to="437140526" modes="public"/>
    </person>
    <person id="ped44" depart="760.84" type="ped_pedestrian">
        <personTrip from="-4611693#3" to="-243854725#2" modes="public"/>
    </person>
    <person id="ped45" depart="778.14" type="ped_pedestrian">
        <personTrip from="-66071379#0" to="765170630" modes="public"/>
    </person>
    <person id="ped46" depart="795.43" type="ped_pedestrian">
        <personTrip from="882389499#3" to="317859982#0" modes="public"/>
    </person>
    <person id="ped47" depart="812.72" type="ped_pedestrian">
        <personTrip from="-284514068" to="217531415" modes="public"/>
    </person>
    <person id="ped48" depart="830.01" type="ped_pedestrian">
        <personTrip from="945425791" to="442389818#5" modes="public"/>
    </person>
    <person id="ped49" depart="847.30" type="ped_pedestrian">
        <personTrip from="915958621#2" to="915958597#1" modes="public"/>
    </person>
    <person id="ped50" depart="864.60" type="ped_pedestrian">
        <personTrip from="-111833186#1" to="882389483" modes="public"/>
    </person>
    <person id="ped51" depart="881.89" type="ped_pedestrian">
        <personTrip from="881527239#1" to="442389818#7" modes="public"/>
    </person>
    <person id="ped52" depart="899.18" type="ped_pedestrian">
        <personTrip from="169195795#4" to="803471189" modes="public"/>
    </person>
    <person id="ped53" depart="916.47" type="ped_pedestrian">
        <personTrip from="-66071379#1" to="32786909" modes="public"/>
    </person>
    <person id="ped54" depart="933.76" type="ped_pedestrian">
        <personTrip from="340498982#4" to="915958619" modes="public"/>
    </person>
    <person id="ped55" depart="951.06" type="ped_pedestrian">
        <personTrip from="915958599#3" to="169195795#1" modes="public"/>
    </person>
    <person id="ped56" depart="968.35" type="ped_pedestrian">
        <personTrip from="373292157#3" to="1037136887#0" modes="public"/>
    </person>
    <person id="ped57" depart="985.64" type="ped_pedestrian">
        <personTrip from="915958611#1" to="915958599#2" modes="public"/>
    </person>
    <person id="ped58" depart="1002.93" type="ped_pedestrian">
        <personTrip from="171423002#13" to="803471189" modes="public"/>
    </person>
    <person id="ped59" depart="1020.22" type="ped_pedestrian">
        <personTrip from="688445665#1" to="1037130735#5" modes="public"/>
    </person>
    <person id="ped60" depart="1037.51" type="ped_pedestrian">
        <personTrip from="882389496#1" to="4610524#0" modes="public"/>
    </person>
    <person id="ped61" depart="1054.81" type="ped_pedestrian">
        <personTrip from="882389498" to="442389818#5" modes="public"/>
    </person>
    <person id="ped62" depart="1072.10" type="ped_pedestrian">
        <personTrip from="-111833185#0" to="171423002#8" modes="public"/>
    </person>
    <person id="ped63" depart="1089.39" type="ped_pedestrian">
        <personTrip from="-11483007#2" to="915958615#0" modes="public"/>
    </person>
    <person id="ped64" depart="1106.68" type="ped_pedestrian">
        <personTrip from="915958601#0" to="915958586" modes="public"/>
    </person>
    <person id="ped65" depart="1123.97" type="ped_pedestrian">
        <personTrip from="171423002#3" to="-28251222#0" modes="public"/>
    </person>
    <person id="ped66" depart="1141.27" type="ped_pedestrian">
        <personTrip from="915958601#0" to="915958617" modes="public"/>
    </person>
    <person id="ped67" depart="1158.56" type="ped_pedestrian">
        <personTrip from="-4611693#0" to="373292148#3" modes="public"/>
    </person>
    <person id="ped68" depart="1175.85" type="ped_pedestrian">
        <personTrip from="-292429062#1" to="882389496#0" modes="public"/>
    </person>
    <person id="ped69" depart="1193.14" type="ped_pedestrian">
        <personTrip from="882389496#2" to="1025247926" modes="public"/>
    </person>
    <person id="ped70" depart="1210.43" type="ped_pedestrian">
        <personTrip from="354528932#1" to="4610525#1" modes="public"/>
    </person>
    <person id="ped71" depart="1227.73" type="ped_pedestrian">
        <personTrip from="169195795#4" to="915958599#2" modes="public"/>
    </person>
    <person id="ped72" depart="1245.02" type="ped_pedestrian">
        <personTrip from="317859982#0" to="104786912#0" modes="public"/>
    </person>
    <person id="ped73" depart="1262.31" type="ped_pedestrian">
        <personTrip from="4610524#0" to="882389486" modes="public"/>
    </person>
    <person id="ped74" depart="1279.60" type="ped_pedestrian">
        <personTrip from="1037153017" to="171423002#4" modes="public"/>
    </person>
    <person id="ped75" depart="1296.89" type="ped_pedestrian">
        <personTrip from="945425791" to="881245039" modes="public"/>
    </person>
    <person id="ped76" depart="1314.19" type="ped_pedestrian">
        <personTrip from="339201236" to="442389818#1" modes="public"/>
    </person>
    <person id="ped77" depart="1331.48" type="ped_pedestrian">
        <personTrip from="1025247925#1" to="104786912#3" modes="public"/>
    </person>
    <person id="ped78" depart="1348.77" type="ped_pedestrian">
        <personTrip from="171494871#3" to="688445661" modes="public"/>
    </person>
    <person id="ped79" depart="1366.06" type="ped_pedestrian">
        <personTrip from="111833185#1" to="104786912#2" modes="public"/>
    </person>
    <person id="ped80" depart="1383.35" type="ped_pedestrian">
        <personTrip from="-292429062#1" to="780327564" modes="public"/>
    </person>
    <person id="ped81" depart="1400.64" type="ped_pedestrian">
        <personTrip from="111833185#1" to="915958605#3" modes="public"/>
    </person>
    <person id="ped82" depart="1417.94" type="ped_pedestrian">
        <personTrip from="915958597#0" to="-292429062#1" modes="public"/>
    </person>
    <person id="ped83" depart="1435.23" type="ped_pedestrian">
        <personTrip from="114667396#0" to="881245043#2" modes="public"/>
    </person>
    <person id="ped84" depart="1452.52" type="ped_pedestrian">
        <personTrip from="104786912#0" to="1025247927" modes="public"/>
    </person>
    <person id="ped85" depart="1469.81" type="ped_pedestrian">
        <personTrip from="915958615#2" to="555247158" modes="public"/>
    </person>
    <person id="ped86" depart="1487.10" type="ped_pedestrian">
        <personTrip from="354528932#1" to="882389499#0" modes="public"/>
    </person>
    <person id="ped87" depart="1504.40" type="ped_pedestrian">
        <personTrip from="883691541#0" to="1037138981#1" modes="public"/>
    </person>
    <person id="ped88" depart="1521.69" type="ped_pedestrian">
        <personTrip from="-515998815" to="327519008" modes="public"/>
    </person>
    <person id="ped89" depart="1538.98" type="ped_pedestrian">
        <personTrip from="317859982#1" to="342968607#1" modes="public"/>
    </person>
    <person id="ped90" depart="1556.27" type="ped_pedestrian">
        <personTrip from="882389485" to="881245043#3" modes="public"/>
    </person>
    <person id="ped91" depart="1573.56" type="ped_pedestrian">
        <personTrip from="915958622#1" to="-555247157" modes="public"/>
    </person>
    <person id="ped92" depart="1590.86" type="ped_pedestrian">
        <personTrip from="24913304#1" to="171494871#4" modes="public"/>
    </person>
    <person id="ped93" depart="1608.15" type="ped_pedestrian">
        <personTrip from="915958597#1" to="153698394#0" modes="public"/>
    </person>
    <person id="ped94" depart="1625.44" type="ped_pedestrian">
        <personTrip from="1037138981#1" to="340498982#2" modes="public"/>
    </person>
    <person id="ped95" depart="1642.73" type="ped_pedestrian">
        <personTrip from="317859982#0" to="169999355#0" modes="public"/>
    </person>
    <person id="ped96" depart="1660.02" type="ped_pedestrian">
        <personTrip from="153698394#0" to="915958612#1" modes="public"/>
    </person>
    <person id="ped97" depart="1677.32" type="ped_pedestrian">
        <personTrip from="340498982#0" to="915958597#1" modes="public"/>
    </person>
    <person id="ped98" depart="1694.61" type="ped_pedestrian">
        <personTrip from="4610525#1" to="-24913267#2" modes="public"/>
    </person>
    <person id="ped99" depart="1711.90" type="ped_pedestrian">
        <personTrip from="973075794" to="915958587#0" modes="public"/>
    </person>
    <person id="ped100" depart="1729.19" type="ped_pedestrian">
        <personTrip from="915958621#1" to="915958612#2" modes="public"/>
    </person>
    <person id="ped101" depart="1746.48" type="ped_pedestrian">
        <personTrip from="915958587#4" to="1037136884#2" modes="public"/>
    </person>
    <person id="ped102" depart="1763.78" type="ped_pedestrian">
        <personTrip from="373292148#3" to="104786912#0" modes="public"/>
    </person>
    <person id="ped103" depart="1781.07" type="ped_pedestrian">
        <personTrip from="24913304#1" to="-28251222#1" modes="public"/>
    </person>
    <person id="ped104" depart="1798.36" type="ped_pedestrian">
        <personTrip from="205728152#3" to="915958622#1" modes="public"/>
    </person>
    <person id="ped105" depart="1815.65" type="ped_pedestrian">
        <personTrip from="169195795#4" to="882389499#0" modes="public"/>
    </person>
    <person id="ped106" depart="1832.94" type="ped_pedestrian">
        <personTrip from="340498982#4" to="317859982#0" modes="public"/>
    </person>
    <person id="ped107" depart="1850.23" type="ped_pedestrian">
        <personTrip from="915958620#0" to="945425791" modes="public"/>
    </person>
    <person id="ped108" depart="1867.53" type="ped_pedestrian">
        <personTrip from="4611693#1" to="882389482" modes="public"/>
    </person>
    <person id="ped109" depart="1884.82" type="ped_pedestrian">
        <personTrip from="1037130735#6" to="171423002#13" modes="public"/>
    </person>
    <person id="ped110" depart="1902.11" type="ped_pedestrian">
        <personTrip from="915958621#1" to="66071373#1" modes="public"/>
    </person>
    <person id="ped111" depart="1919.40" type="ped_pedestrian">
        <personTrip from="4610524#1" to="882389491" modes="public"/>
    </person>
    <person id="ped112" depart="1936.69" type="ped_pedestrian">
        <personTrip from="-28251222#0" to="66071379#1" modes="public"/>
    </person>
    <person id="ped113" depart="1953.99" type="ped_pedestrian">
        <personTrip from="38211708#0" to="915958587#5" modes="public"/>
    </person>
    <person id="ped114" depart="1971.28" type="ped_pedestrian">
        <personTrip from="1037130999" to="915958620#1" modes="public"/>
    </person>
    <person id="ped115" depart="1988.57" type="ped_pedestrian">
        <personTrip from="-4610524#0" to="1037138981#0" modes="public"/>
    </person>
    <person id="ped116" depart="2005.86" type="ped_pedestrian">
        <personTrip from="688445662#1" to="881245044" modes="public"/>
    </person>
    <person id="ped117" depart="2023.15" type="ped_pedestrian">
        <personTrip from="111833186#1" to="1025247925#0" modes="public"/>
    </person>
    <person id="ped118" depart="2040.45" type="ped_pedestrian">
        <personTrip from="915958602#1" to="153698380#0" modes="public"/>
    </person>
    <person id="ped119" depart="2057.74" type="ped_pedestrian">
        <personTrip from="688445662#1" to="742216171" modes="public"/>
    </person>
    <person id="ped120" depart="2075.03" type="ped_pedestrian">
        <personTrip from="305153173" to="66071379#1" modes="public"/>
    </person>
    <person id="ped121" depart="2092.32" type="ped_pedestrian">
        <personTrip from="442389818#3" to="915958615#1" modes="public"/>
    </person>
    <person id="ped122" depart="2109.61" type="ped_pedestrian">
        <personTrip from="1037153018#0" to="882389481" modes="public"/>
    </person>
    <person id="ped123" depart="2126.91" type="ped_pedestrian">
        <personTrip from="114667396#0" to="24913267#1" modes="public"/>
    </person>
    <person id="ped124" depart="2144.20" type="ped_pedestrian">
        <personTrip from="881245043#3" to="171423002#14" modes="public"/>
    </person>
    <person id="ped125" depart="2161.49" type="ped_pedestrian">
        <personTrip from="171423002#6" to="882389492" modes="public"/>
    </person>
    <person id="ped126" depart="2178.78" type="ped_pedestrian">
        <personTrip from="-305153173" to="340498982#7" modes="public"/>
    </person>
    <person id="ped127" depart="2196.07" type="ped_pedestrian">
        <personTrip from="973075794" to="945425791" modes="public"/>
    </person>
    <person id="ped128" depart="2213.36" type="ped_pedestrian">
        <personTrip from="-305153173" to="104786912#0" modes="public"/>
    </person>
    <person id="ped129" depart="2230.66" type="ped_pedestrian">
        <personTrip from="169195795#4" to="915958615#1" modes="public"/>
    </person>
    <person id="ped130" depart="2247.95" type="ped_pedestrian">
        <personTrip from="915958601#1" to="915958601#0" modes="public"/>
    </person>
    <person id="ped131" depart="2265.24" type="ped_pedestrian">
        <personTrip from="195089283" to="1037130999" modes="public"/>
    </person>
    <person id="ped132" depart="2282.53" type="ped_pedestrian">
        <personTrip from="915958586" to="881527239#9" modes="public"/>
    </person>
    <person id="ped133" depart="2299.82" type="ped_pedestrian">
        <personTrip from="698625568#0" to="915958622#2" modes="public"/>
    </person>
    <person id="ped134" depart="2317.12" type="ped_pedestrian">
        <personTrip from="881245040" to="-111833186#0" modes="public"/>
    </person>
    <person id="ped135" depart="2334.41" type="ped_pedestrian">
        <personTrip from="883691541#3" to="171423002#13" modes="public"/>
    </person>
    <person id="ped136" depart="2351.70" type="ped_pedestrian">
        <personTrip from="881245043#0" to="915958615#3" modes="public"/>
    </person>
    <person id="ped137" depart="2368.99" type="ped_pedestrian">
        <personTrip from="1037130735#0" to="-973075794" modes="public"/>
    </person>
    <person id="ped138" depart="2386.28" type="ped_pedestrian">
        <personTrip from="-66071373#2" to="4611693#0" modes="public"/>
    </person>
    <person id="ped139" depart="2403.58" type="ped_pedestrian">
        <personTrip from="169195795#6" to="688445665#0" modes="public"/>
    </person>
    <person id="ped140" depart="2420.87" type="ped_pedestrian">
        <personTrip from="882389482" to="1037153018#0" modes="public"/>
    </person>
    <person id="ped141" depart="2438.16" type="ped_pedestrian">
        <personTrip from="803471187" to="169195795#4" modes="public"/>
    </person>
    <person id="ped142" depart="2455.45" type="ped_pedestrian">
        <personTrip from="373292148#3" to="915958605#3" modes="public"/>
    </person>
    <person id="ped143" depart="2472.74" type="ped_pedestrian">
        <personTrip from="915958587#3" to="-4611707" modes="public"/>
    </person>
    <person id="ped144" depart="2490.04" type="ped_pedestrian">
        <personTrip from="317859982#1" to="169195795#8" modes="public"/>
    </person>
    <person id="ped145" depart="2507.33" type="ped_pedestrian">
        <personTrip from="-111833185#1" to="882389496#3" modes="public"/>
    </person>
    <person id="ped146" depart="2524.62" type="ped_pedestrian">
        <personTrip from="803471188#0" to="169195795#1" modes="public"/>
    </person>
    <person id="ped147" depart="2541.91" type="ped_pedestrian">
        <personTrip from="882389489" to="4611693#0" modes="public"/>
    </person>
    <person id="ped148" depart="2559.20" type="ped_pedestrian">
        <personTrip from="317859982#2" to="-111833186#0" modes="public"/>
    </person>
    <person id="ped149" depart="2576.50" type="ped_pedestrian">
        <personTrip from="-4412868" to="915958601#2" modes="public"/>
    </person>
    <person id="ped150" depart="2593.79" type="ped_pedestrian">
        <personTrip from="915958605#3" to="4610525#0" modes="public"/>
    </person>
    <person id="ped151" depart="2611.08" type="ped_pedestrian">
        <personTrip from="915958587#0" to="66071379#0" modes="public"/>
    </person>
    <person id="ped152" depart="2628.37" type="ped_pedestrian">
        <personTrip from="1037130735#4" to="1025247926" modes="public"/>
    </person>
    <person id="ped153" depart="2645.66" type="ped_pedestrian">
        <personTrip from="171423002#3" to="915958605#1" modes="public"/>
    </person>
    <person id="ped154" depart="2662.95" type="ped_pedestrian">
        <personTrip from="882389499#4" to="915958597#1" modes="public"/>
    </person>
    <person id="ped155" depart="2680.25" type="ped_pedestrian">
        <personTrip from="915958605#1" to="1037153019#1" modes="public"/>
    </person>
    <person id="ped156" depart="2697.54" type="ped_pedestrian">
        <personTrip from="153698394#0" to="-589906055#1" modes="public"/>
    </person>
    <person id="ped157" depart="2714.83" type="ped_pedestrian">
        <personTrip from="882389498" to="915958601#2" modes="public"/>
    </person>
    <person id="ped158" depart="2732.12" type="ped_pedestrian">
        <personTrip from="28251222#0" to="742216171" modes="public"/>
    </person>
    <person id="ped159" depart="2749.41" type="ped_pedestrian">
        <personTrip from="1037130735#6" to="915958615#0" modes="public"/>
    </person>
    <person id="ped160" depart="2766.71" type="ped_pedestrian">
        <personTrip from="915958599#0" to="915958621#3" modes="public"/>
    </person>
    <person id="ped161" depart="2784.00" type="ped_pedestrian">
        <personTrip from="883691541#1" to="915958601#1" modes="public"/>
    </person>
    <person id="ped162" depart="2801.29" type="ped_pedestrian">
        <personTrip from="-153698394#0" to="882389488" modes="public"/>
    </person>
    <person id="ped163" depart="2818.58" type="ped_pedestrian">
        <personTrip from="171494871#1" to="915958615#0" modes="public"/>
    </person>
    <person id="ped164" depart="2835.87" type="ped_pedestrian">
        <personTrip from="883691540" to="915958599#0" modes="public"/>
    </person>
    <person id="ped165" depart="2853.17" type="ped_pedestrian">
        <personTrip from="883691541#1" to="169195795#4" modes="public"/>
    </person>
    <person id="ped166" depart="2870.46" type="ped_pedestrian">
        <personTrip from="882389499#1" to="-66071379#0" modes="public"/>
    </person>
    <person id="ped167" depart="2887.75" type="ped_pedestrian">
        <personTrip from="915958599#2" to="915958597#0" modes="public"/>
    </person>
    <person id="ped168" depart="2905.04" type="ped_pedestrian">
        <personTrip from="104786912#3" to="883691541#3" modes="public"/>
    </person>
    <person id="ped169" depart="2922.33" type="ped_pedestrian">
        <personTrip from="340498982#8" to="171423002#2" modes="public"/>
    </person>
    <person id="ped170" depart="2939.63" type="ped_pedestrian">
        <personTrip from="882389499#4" to="111833185#0" modes="public"/>
    </person>
    <person id="ped171" depart="2956.92" type="ped_pedestrian">
        <personTrip from="-153698394#0" to="1037138982" modes="public"/>
    </person>
    <person id="ped172" depart="2974.21" type="ped_pedestrian">
        <personTrip from="171423002#9" to="915958599#0" modes="public"/>
    </person>
    <person id="ped173" depart="2991.50" type="ped_pedestrian">
        <personTrip from="915958620#3" to="169999355#0" modes="public"/>
    </person>
    <person id="ped174" depart="3008.79" type="ped_pedestrian">
        <personTrip from="803471189" to="24913267#3" modes="public"/>
    </person>
    <person id="ped175" depart="3026.08" type="ped_pedestrian">
        <personTrip from="915958622#0" to="442389818#7" modes="public"/>
    </person>
    <person id="ped176" depart="3043.38" type="ped_pedestrian">
        <personTrip from="915958615#3" to="-973075794" modes="public"/>
    </person>
    <person id="ped177" depart="3060.67" type="ped_pedestrian">
        <personTrip from="915958621#1" to="1037136887#0" modes="public"/>
    </person>
    <person id="ped178" depart="3077.96" type="ped_pedestrian">
        <personTrip from="915958620#2" to="169195795#4" modes="public"/>
    </person>
    <person id="ped179" depart="3095.25" type="ped_pedestrian">
        <personTrip from="-66071379#0" to="32786909" modes="public"/>
    </person>
    <person id="ped180" depart="3112.54" type="ped_pedestrian">
        <personTrip from="882389485" to="171423002#5" modes="public"/>
    </person>
    <person id="ped181" depart="3129.84" type="ped_pedestrian">
        <personTrip from="688445665#1" to="4412868" modes="public"/>
    </person>
    <person id="ped182" depart="3147.13" type="ped_pedestrian">
        <personTrip from="217531416" to="66071373#1" modes="public"/>
    </person>
    <person id="ped183" depart="3164.42" type="ped_pedestrian">
        <personTrip from="168937986#1" to="881611351" modes="public"/>
    </person>
    <person id="ped184" depart="3181.71" type="ped_pedestrian">
        <personTrip from="-111833185#0" to="915958612#2" modes="public"/>
    </person>
    <person id="ped185" depart="3199.00" type="ped_pedestrian">
        <personTrip from="4610524#0" to="882389482" modes="public"/>
    </person>
    <person id="ped186" depart="3216.30" type="ped_pedestrian">
        <personTrip from="882389489" to="881245043#2" modes="public"/>
    </person>
    <person id="ped187" depart="3233.59" type="ped_pedestrian">
        <personTrip from="194069449#1" to="-292429062#1" modes="public"/>
    </person>
    <person id="ped188" depart="3250.88" type="ped_pedestrian">
        <personTrip from="881245043#0" to="171494871#1" modes="public"/>
    </person>
    <person id="ped189" depart="3268.17" type="ped_pedestrian">
        <personTrip from="171423002#5" to="915958587#4" modes="public"/>
    </person>
    <person id="ped190" depart="3285.46" type="ped_pedestrian">
        <personTrip from="882389482" to="171423002#14" modes="public"/>
    </person>
    <person id="ped191" depart="3302.76" type="ped_pedestrian">
        <personTrip from="171423002#3" to="28251222#1" modes="public"/>
    </person>
    <person id="ped192" depart="3320.05" type="ped_pedestrian">
        <personTrip from="24913304#1" to="171423002#12" modes="public"/>
    </person>
    <person id="ped193" depart="3337.34" type="ped_pedestrian">
        <personTrip from="1025247926" to="317859982#0" modes="public"/>
    </person>
    <person id="ped194" depart="3354.63" type="ped_pedestrian">