<?xml version="1.0" encoding="UTF-8"?>
<!-- generated on 2022-04-18 01:18:12.593949 by $Id: ptlines2flows.py v1_3_1+0313-ccb31df3eb jakob.erdmann@dlr.de 2019-09-02 13:26:32 +0200 $ v1_12_0+0000-800cb422fa4
  options: 
-->
<routes xmlns:xsi="http://www.w3.org/2001/XMLSchema-instance" xsi:noNamespaceSchemaLocation="http://sumo.dlr.de/xsd/routes_file.xsd">
    <vType id="pt_bus" vClass="bus"/>
    <vType id="pt_tram" vClass="tram"/>
    <vType id="pt_train" vClass="rail"/>
    <vType id="pt_subway" vClass="rail_urban"/>
    <vType id="pt_light_rail" vClass="rail_urban"/>
    <vType id="pt_monorail" vClass="rail"/>
    <vType id="pt_trolleybus" vClass="bus"/>
    <vType id="pt_minibus" vClass="bus"/>
    <vType id="pt_share_taxi" vClass="taxi"/>
    <vType id="pt_aerialway" vClass="bus"/>
    <vType id="pt_ferry" vClass="ship"/>
    <route id="pt_bus_100:1" color="149,39,110" edges="236092221#0 342968607#1 461526152#0 340498982#0 340498982#2 340498982#3 340498982#4 340498982#7 340498982#8 354528932#0 354528932#1" >
        <stop busStop="3869306771" duration="20" until="71.0"/> <!-- U Unter den Linden -->
        <stop busStop="3870475228" duration="20" until="158.0"/> <!-- Staatsoper -->
    </route>
    <route id="pt_subway_U6:0" color="128,112,183" edges="295250353#0 295250353#1 295250353#2" >
        <stop busStop="8170794617" duration="20" until="44.0"/> <!-- U Unter den Linden -->
    </route>
    <route id="pt_subway_U5:1" color="125,83,61" edges="942849697 71326270" >
        <stop busStop="7974928190" duration="20" until="50.0"/> <!-- U Museumsinsel -->
        <stop busStop="8090274121" duration="20" until="140.0"/> <!-- U Unter den Linden -->
    </route>
    <route id="pt_subway_U5:0" color="125,83,61" edges="942849696 942849695" >
        <stop busStop="8087330616" duration="20" until="60.0"/> <!-- U Unter den Linden -->
        <stop busStop="7974955393" duration="20" until="154.0"/> <!-- U Museumsinsel -->
    </route>
    <route id="pt_bus_100:0" color="149,39,110" edges="751602168 169195795#0 169195795#1 169195795#4 169195795#5 169195795#6 169195795#8 882389494 340498988#0 188386313#1 188386313#2 24913304#1" >
        <stop busStop="271296293" duration="20" until="59.0"/> <!-- Staatsoper -->
        <stop busStop="272408975" duration="20" until="196.0"/> <!-- U Unter den Linden -->
        <stop busStop="271373068" duration="20" until="277.0"/> <!-- S+U Brandenburger Tor -->
    </route>
    <route id="pt_subway_U6:1" color="128,112,183" edges="335043673#0 335043673#1 335043673#2" >
        <stop busStop="8170769020" duration="20" until="62.0"/> <!-- U Unter den Linden -->
    </route>
    <route id="pt_bus_147:0" edges="11483007#0 -169999355#2 -194069450#1" >
        <stop busStop="-9023382186" duration="20" until="63.0"/> <!-- U Unter den Linden -->
    </route>
    <route id="pt_bus_147:1" edges="194069450#0 169999355#0 -11483007#2" >
        <stop busStop="9023382187" duration="20" until="79.0"/> <!-- U Unter den Linden -->
    </route>
    <route id="pt_bus_300:0" edges="751602168 169195795#0 169195795#1 169195795#4 169195795#5 169195795#6 169195795#8 882389494 340498988#0 188386313#1 188386313#2 24913267#1 24913267#3" >
        <stop busStop="271296293" duration="20" until="72.0"/> <!-- Staatsoper -->
        <stop busStop="272408975" duration="20" until="190.0"/> <!-- U Unter den Linden -->
    </route>
    <route id="pt_bus_300:1" edges="-24913267#3 -24913267#2 342968607#1 461526152#0 340498982#0 340498982#2 340498982#3 340498982#4 340498982#7 340498982#8 354528932#0 354528932#1" >
        <stop busStop="3869306771" duration="20" until="94.0"/> <!-- U Unter den Linden -->
        <stop busStop="3870475228" duration="20" until="184.0"/> <!-- Staatsoper -->
    </route>
    <flow id="pt_bus_100:1" type="pt_bus" route="pt_bus_100:1" begin="15.0" end="3615.0" period="600" line="100:1" >
        <param key="name" value="Bus 100: S+U Zoologischer Garten =&gt; S+U Alexanderplatz"/>
        <param key="completeness" value="0.11"/>
    </flow>
    <flow id="pt_subway_U6:0" type="pt_subway" route="pt_subway_U6:0" begin="165.0" end="3765.0" period="300" line="U6:0" >
        <param key="name" value="U6: U Alt-Mariendorf =&gt; U Alt-Tegel"/>
        <param key="completeness" value="0.03"/>
    </flow>
    <flow id="pt_subway_U5:1" type="pt_subway" route="pt_subway_U5:1" begin="133.0" end="3733.0" period="300" line="U5:1" >
        <param key="name" value="U5: U Hönow =&gt; U Hauptbahnhof"/>
        <param key="completeness" value="0.08"/>
    </flow>
    <flow id="pt_subway_U5:0" type="pt_subway" route="pt_subway_U5:0" begin="131.0" end="3731.0" period="300" line="U5:0" >
        <param key="name" value="U5: U Hauptbahnhof =&gt; U Hönow"/>
        <param key="completeness" value="0.08"/>
    </flow>
    <flow id="pt_bus_100:0" type="pt_bus" route="pt_bus_100:0" begin="15.0" end="3615.0" period="600" line="100:0" >
        <param key="name" value="Bus 100: S+U Alexanderplatz =&gt; S+U Zoologischer Garten"/>
        <param key="completeness" value="0.18"/>
    </flow>
    <flow id="pt_subway_U6:1" type="pt_subway" route="pt_subway_U6:1" begin="253.0" end="3853.0" period="300" line="U6:1" >
        <param key="name" value="U6: U Alt-Tegel =&gt; U Alt-Mariendorf"/>
        <param key="completeness" value="0.03"/>
    </flow>
    <flow id="pt_bus_147:0" type="pt_bus" route="pt_bus_147:0" begin="383.0" end="3983.0" period="600" line="147:0" >
        <param key="name" value="Bus 147: U Leopoldplatz =&gt; Mitte, Fischerinsel"/>
        <param key="completeness" value="0.05"/>
    </flow>
    <flow id="pt_bus_147:1" type="pt_bus" route="pt_bus_147:1" begin="406.0" end="4006.0" period="600" line="147:1" >
        <param key="name" value="Bus 147: Mitte, Fischerinsel =&gt; U Leopoldplatz"/>
        <param key="completeness" value="0.05"/>
    </flow>
    <flow id="pt_bus_300:0" type="pt_bus" route="pt_bus_300:0" begin="441.0" end="4041.0" period="600" line="300:0" >
        <param key="name" value="Bus 300: S+U Warschauer Straße =&gt; Tiergarten, Philharmonie Süd"/>
        <param key="completeness" value="0.10"/>
    </flow>
    <flow id="pt_bus_300:1" type="pt_bus" route="pt_bus_300:1" begin="535.0" end="4135.0" period="600" line="300:1" >
        <param key="name" value="Bus 300: Tiergarten, Philharmonie Süd =&gt; S+U Warschauer Straße"/>
        <param key="completeness" value="0.09"/>
    </flow>
</routes>
